46
 energy: -87.029235328819 gnorm: 0.000188262726 xtb: 6.5.1 (579679a)
C           -6.37244475137511        0.67000393763799        0.64431498358434
O           -5.10732912332541        0.05113175754120        0.47650330807655
C           -4.05738220366368        0.93255565056405        0.15708439855992
O           -4.31707789384535        2.13936962747854        0.02641136382043
C           -2.81034760744514        0.30979628512049       -0.00928869873401
C           -2.46420439279922       -1.08480490262929        0.22280512254433
O           -3.36638230589292       -1.96109169359103        0.78777755608872
C           -1.20189281174152       -1.50671521131529        0.00792981762148
O           -0.71673009954845       -2.78270048634849        0.28123920865754
C           -0.84416263515542       -3.25417301016800        1.61479265475505
N           -0.20099520931496       -0.66955619169040       -0.61831261903667
C            0.04663954526928       -1.11341477803404       -2.01116199105253
C           -0.57540428039446        0.72346164682324       -0.53723735779189
C            0.53961448313968        1.74737001466064       -0.71301037658281
C            0.40233085035459        2.83235032522761        0.36774788172314
C            0.44780982213285        2.38460409886866       -2.10937243125468
N            1.82415455144010        1.06110980108134       -0.54103304110538
C            3.01829806525198        1.65181445058980       -0.66012935303276
O            3.21517170882568        2.81463346340328       -0.99293748559446
C            4.15816504828233        0.74685382977403       -0.33912923872651
N            5.42292403428844        1.03053182018481       -0.41071615128341
N            6.10031372799583       -0.07951718097356        0.00343663203781
C            5.20764756551947       -0.96954382952582        0.30451297643808
C            5.43965980127967       -2.33820120598783        0.81652318158645
O            3.95890701887932       -0.51261013078307        0.10957850469822
N           -1.74632070423246        1.15874496450810       -0.28804906708010
H           -7.09436264578391       -0.11986171595529        0.85291225222984
H           -6.67213677785980        1.20652448004507       -0.26371437462217
H           -6.35608732085507        1.37834908925884        1.48132693881772
H           -4.22642746338174       -1.52074959430062        0.90514483738718
H           -1.87995889944820       -3.53097809844855        1.84691747742041
H           -0.21332116016386       -4.14183096853459        1.69959723098254
H           -0.50714378472460       -2.50355387756577        2.34058483910469
H           -0.83770293922246       -0.97171121485679       -2.64165662770417
H            0.30831822832805       -2.17066785778389       -1.98476716807965
H            0.88380245841273       -0.55263531825960       -2.42365869525865
H            1.15276588646670        3.60957248905305        0.23119773400811
H            0.52400301162457        2.38932751616654        1.35551710180879
H           -0.59110225882141        3.27507724121552        0.30041422539216
H           -0.56542266605445        2.75734938956569       -2.25715197425794
H            1.14788518598595        3.21301322524080       -2.20737691557815
H            0.66617637785055        1.64685212922075       -2.87933667437861
H            1.77736436665589        0.09792885543400       -0.22994777246870
H            4.98356275233009       -2.45115027164370        1.79980267198877
H            6.50869839609408       -2.52100590315108        0.89068646264157
H            4.99013004866515       -3.07185464712888        0.14830265164139
