46
 energy: -86.232749490248 gnorm: 0.000808172604 xtb: 6.5.1 (579679a)
C           -5.70686536957879        2.45215114442298       -2.05652691267859
O           -4.92595699954134        1.72069361275896       -1.09350873862035
C           -3.76961132028495        1.21977355176235       -1.53125800438108
O           -3.36938193930472        1.34635617712760       -2.65975805054604
C           -3.01565745423913        0.49206979077224       -0.46200598340219
N           -1.81872180361369        0.01028573785641       -0.87548378260022
C           -1.01933339810108       -0.62904705479831       -0.07210069960112
C            0.25687341749737       -1.16190341737681       -0.70498490284880
C            0.17617641250942       -2.69459458293331       -0.80810156115346
C            0.41712385786939       -0.56365110365874       -2.11771526981372
N            1.40515042247892       -0.73033600554034        0.06978996281258
C            2.72684919077211       -1.13692553358984       -0.21481799899235
C            3.22093640734426       -1.82854684817752        1.24960451720381
O            2.98557401673135       -1.92550597010982       -1.14663946335911
C            3.66468309349964        0.03911491304566        0.04041794678203
N            4.86763573534186        0.18870446871805       -0.41775716033110
N            5.27531327240880        1.40187294548196        0.01386853280693
C            4.32606770810969        1.89885221648711        0.75607498256549
C            4.29042726698414        3.20522913704331        1.43530233897889
O            3.27161863112170        1.06277872259408        0.81436125630306
N           -1.34444922396970       -0.85081488532199        1.22845753708358
C           -0.50783659841017       -1.55826752003129        2.19465072184546
C           -2.56965819701370       -0.43319563776975        1.77075031186055
O           -2.84344690840103       -0.68008695985347        2.92800979471066
C           -3.43687639950194        0.29341479297829        0.83712267760355
O           -4.58155409752669        0.70403095879585        1.35727943896392
H           -5.10775821373877        3.26334821448158       -2.47438768381356
H           -6.56597724178900        2.84669330924748       -1.52027434422450
H           -6.02611855696338        1.77984309294101       -2.85535122453300
H            0.17637050831600       -3.14779033862996        0.17912491426732
H           -0.74823847114572       -2.95658395364729       -1.32047618924523
H            1.01913317959509       -3.08326020779240       -1.37505271411596
H            1.33073049972400       -0.93620838864476       -2.57603781806141
H           -0.43939538604648       -0.86151374188720       -2.71974078636911
H            0.45413210295065        0.52150815699450       -2.05432132192864
H            1.29805818180390        0.06907647906058        0.67568452094426
H            2.61010355314972       -2.72418026585820        1.27590606576208
H            4.27436616834775       -2.06453776443449        1.14521175487736
H            3.01223081089910       -1.16132122516073        2.07530781863966
H            5.28679812158785        3.64220213640736        1.44613795847081
H            3.60945718579644        3.87576535401919        0.90793884407729
H            3.91707122522447        3.08390711488017        2.45133164047329
H            0.49667363826228       -1.67521288221193        1.80835784296894
H           -0.48685913714370       -0.97435712419745        3.11446048422731
H           -0.95005606596029       -2.53357981737676        2.39783111799461
H           -5.13580482603381        1.19374820111408        0.71989562838991
