46
 energy: -87.009215455872 gnorm: 0.000775756149 xtb: 6.5.1 (579679a)
C           -4.36411823426354        1.21359193323430       -3.00652779536479
O           -3.73096954780698        1.21448261931135       -1.73135107761602
C           -3.10667281926570        0.03446715960264       -1.38486862317864
O           -3.11394507391875       -0.91515901823372       -2.16508606731461
C           -2.52802751391208        0.04140119002912       -0.07212763601284
C           -2.33706648094129        1.12381756479283        0.77746210349316
O           -2.76216208226486        2.39431360458111        0.50750899197160
C           -1.50025959570117        0.98835279210615        1.94597617329290
O           -1.42806066413873        1.79953485878951        2.90569537409832
N           -0.64576542412518       -0.09293686272929        1.88334133128213
C            0.35816555535912       -0.13597530514953        2.94646280948764
C           -0.81464217792567       -1.17996622821306        1.02764941869347
C            0.35428135682146       -1.61380599606696        0.14114900926940
C           -0.11444652242797       -1.93107476263946       -1.28815413533439
C            1.01839202463996       -2.87105368034956        0.73768627753198
N            1.34600433841319       -0.52164018009390        0.07509383109492
C            2.53859366059064       -0.58564256997469       -0.52845509962540
O            3.00854203785083       -1.54927497821013       -1.11715452722123
C            3.26404221241559        0.71271015470982       -0.39782040229441
N            2.81993105707348        1.78150400983549        0.19186402020227
N            3.79330159321879        2.73154913790074        0.07169430967717
C            4.76687570598104        2.18025319528112       -0.58365304834930
C            6.05639215245744        2.79261360125170       -0.97375271015171
O            4.49443269408698        0.90700527811490       -0.91047288278277
N           -2.12064642499914       -1.25539264785470        0.42496008802782
C           -3.11554746264334       -1.81818988995647        1.35960998852823
H           -3.62949034311315        1.05673113905380       -3.80277674611463
H           -5.11995981838246        0.42370627991412       -3.05980688527583
H           -4.83857943595738        2.18592516516307       -3.12970982152220
H           -3.31605638026206        2.41149215161899       -0.28908422490340
H            0.86522742449668        0.82897544359004        3.01366115547073
H            1.08372354301036       -0.91793877172329        2.74105637963272
H           -0.13373085839500       -0.33884818877422        3.90171399816532
H            0.70886660357035       -2.34427839828397       -1.86987272549795
H           -0.92779367006452       -2.65495782125124       -1.25621128173579
H           -0.47499206051141       -1.02746334231704       -1.77750820168552
H            1.78100408285208       -3.27200939795855        0.07126948850349
H            1.47704064797295       -2.64469186232576        1.69843497467061
H            0.24976705926357       -3.62681479852368        0.89159427281372
H            1.08333612683510        0.36244642978751        0.49398766198821
H            6.10730641890252        3.81104194726109       -0.59622230257970
H            6.15226006782718        2.80172938047941       -2.05979532242986
H            6.88382879355457        2.21069476830910       -0.56772932669957
H           -2.75691075102673       -2.79427849279284        1.68707839534735
H           -3.26616066768289       -1.17592862958992        2.23698005605379
H           -4.06531314746976       -1.93567498170378        0.83621273441402
