42
 energy: -82.972675752921 gnorm: 0.000155730337 xtb: 6.5.1 (579679a)
C           -6.25897274859457        1.05889219992865        0.57748510033538
O           -4.87820827031874        0.87634740897175        0.26324244167248
C           -4.36594797007479        1.70029251385663       -0.65599725313594
O           -5.04274384407385        2.55818813956480       -1.20494380117366
C           -2.93629437467900        1.48575984524951       -0.92635398502860
N           -2.30971808857980        0.46856441254943       -0.25158866821356
C           -1.03061376616698        0.32570871947764       -0.48731879357082
C           -0.33197584967434       -0.80848571218162        0.25765717786921
C           -0.81232175702099       -2.15704406501611       -0.28837278806423
C           -0.58473873780224       -0.68870420423299        1.76185530919826
N            1.09112951291786       -0.62561737737724       -0.04198628820675
C            2.10217986282949       -1.31101400735618        0.38527282205494
O            1.89204826981413       -2.32782122329848        1.18218545809004
C            2.95253766671140       -3.12694190764214        1.72182441887665
C            3.42897590104043       -0.90652391529986       -0.03580153792224
N            4.58724476193453       -1.43895876745245        0.23970525075858
N            5.52187755667713       -0.68500417888276       -0.37574155412330
C            4.88993368390279        0.27298678364754       -0.99650064587595
C            5.47432882168710        1.36180564920014       -1.80341922021106
O            3.56642801584375        0.18236910847814       -0.81911382901019
N           -0.26002634512505        1.04012128696421       -1.30014251437166
C           -0.80279885426814        2.06583744720085       -2.02808833882885
O           -0.13036299753788        2.75266902874440       -2.80324828914168
C           -2.24486841183258        2.28412791023520       -1.80949196802204
O           -2.81429741497858        3.29012761818340       -2.50042601979108
H           -6.87363750830093        0.90143878960761       -0.31255908594243
H           -6.50631859887332        0.32360108167212        1.34089870213527
H           -6.42937534357845        2.06958600356117        0.95731112305377
H           -0.55657958250335       -2.24481054141485       -1.34326207040885
H           -0.35929992940222       -2.98093011780007        0.25849135347945
H           -1.89497115779658       -2.20601579277099       -0.17862276886464
H           -0.11278366277616        0.21249630520793        2.15031159860777
H           -0.19801635976125       -1.55349192537376        2.29589615143367
H           -1.66121130006842       -0.62139048102809        1.91823825116563
H            1.21214387114608        0.16922093563056       -0.70784695414344
H            3.62613237618497       -2.50736761353769        2.31605434588958
H            3.50973725030703       -3.60787473695468        0.91635978791836
H            2.46582054390222       -3.87214374339613        2.34824133474055
H            5.07808002737493        1.32773846517739       -2.81858408261558
H            5.20812561195079        2.32634113763355       -1.36995137388954
H            6.55617998671175        1.25771931115244       -1.82798265540902
H           -3.76681884714262        3.35820120912019       -2.27455714132122
