16
 energy: -33.442001527162 gnorm: 0.000765285972 xtb: 6.5.1 (579679a)
C           -1.24603336561854        1.69772401843550        0.49254310663016
C           -0.26492918546616        0.63916966965660        0.21383174811333
O            1.01282615517776        0.76209934226029        0.50742936418968
C            1.59825814358553       -0.39027276914906        0.12966590347974
C            3.06182917330030       -0.63251444109483        0.30898168791324
O            3.56990503518450       -1.65535236613284       -0.03371680392518
Cl           3.89345941261336        0.66366849050558        1.02922076405592
N            0.72823716335741       -1.20925607005264       -0.38120940228802
N           -0.44117446970690       -0.55407701895529       -0.32140233234960
C           -1.64445802628310       -1.18520399617329       -0.82548291847830
H           -1.76917895438317        1.47103912789206        1.42529075368285
H           -0.72842159075846        2.64935356043700        0.60583549005152
H           -1.98378289709705        1.75746452478554       -0.30604330581121
H           -1.59933551416949       -2.24428962467585       -0.58055577221336
H           -1.68169042932244       -1.05283225179518       -1.90659765198655
H           -2.50551065041356       -0.71672019594358       -0.35779063106419
