42
 energy: -83.619119953244 gnorm: 0.000188471070 xtb: 6.5.1 (579679a)
C            5.30731401937779        0.71295793497317        2.62110949985167
O            4.32686882530588        0.45903531033355        1.62896767133211
C            4.67632053798170        0.81199718354953        0.34831373467014
O            5.77533101471728        1.30423460038085        0.13110872837131
C            3.62497301047915        0.53866777929675       -0.61138722234999
N            2.47693912041434       -0.03043490549249       -0.08413514161690
C            1.47355407875721       -0.28414269431537       -0.84040323128276
C            0.20567521980665       -0.91903867244133       -0.31157002487453
C            0.15578040984238       -0.78402904946721        1.21844657941056
C            0.18191207448496       -2.40096459929459       -0.71786494812244
N           -0.92828998703097       -0.23427393485373       -0.97156227955792
C           -2.22432665444613       -0.60973413509016       -0.41871234710121
O           -2.92178557107051       -1.60397811233525       -1.12591129384746
C           -3.56301123637332       -1.17152499281723       -2.31950801472588
C           -2.84738947726728        0.32109822304191        0.37540235116692
N           -2.22313122967490        1.36138954591322        0.97776176802224
N           -3.17152664429938        1.95336658126086        1.79120144451267
C           -4.26571771629823        1.29265615285439        1.66798336369762
C           -5.56080545311970        1.54936143280581        2.35445945411179
O           -4.16583362549510        0.23585959574112        0.79154234535493
N            1.49310546368555       -0.00323502679775       -2.19182117207443
C            2.55922885420089        0.54186104427942       -2.84726946497863
O            2.49454198932937        0.75886431479381       -4.05910117635990
C            3.76706124024442        0.84901116829576       -1.98977127060943
O            4.77591243472328        1.34490440353254       -2.53067990136071
H            5.55137079497437        1.77980973461539        2.66616185390412
H            4.88978908657390        0.39327385854161        3.57527129159173
H            6.22531631283702        0.15217882820729        2.41632909265281
H            0.03025702847242        0.26346720567234        1.49756812667803
H            1.08195127828353       -1.16026636559584        1.65308261009585
H           -0.68246275656037       -1.35536534732353        1.61611016074121
H            0.24124665690925       -2.48917396384053       -1.80261966707158
H           -0.74698957445199       -2.86251705304058       -0.38338231911151
H            1.02305004326761       -2.93166203778376       -0.27230175618557
H           -0.81344550977480        0.76984344192153       -0.80387952034889
H           -2.83819290972212       -0.75580341348345       -3.03289090984340
H           -4.04454156489375       -2.04327984647810       -2.76889576088418
H           -4.32675034449297       -0.41042873495039       -2.10900881963955
H           -5.88948920052549        0.66499519438360        2.90240689757340
H           -6.33923307156588        1.80543470238160        1.63370317238131
H           -5.43995161873178        2.37585969322560        3.05220505267366
H            0.65537765112687       -0.19027704459410       -2.72645695683792
