43
 energy: -83.120418464589 gnorm: 0.000964534471 xtb: 6.5.1 (579679a)
C           -4.52947524693755       -3.28124416652790        0.22743134053181
O           -4.10633780781876       -1.91533594621708        0.07059545244342
C           -2.81175525678971       -1.68880124315741        0.04622323412733
O           -1.95184832152518       -2.52452246046358        0.13757715931996
C           -2.47862414671571       -0.21400583273824       -0.11015813939768
C           -3.38770072862425        0.84670700351119        0.07973097119365
O           -4.62590623866967        0.68862227340040        0.38985282369664
C           -2.93366240875485        2.25392196904473       -0.09611936029740
O           -3.71678745600062        3.17043605683558        0.03448633293955
N           -1.62885030260011        2.37647123972310       -0.42758185905356
C           -0.70209557248494        1.29793215471503       -0.52971045958839
C            0.13479871498559        1.42202827855234       -1.80529432050997
C            0.31109826136501        1.37280567542806        0.82099051899455
C            0.86733623008033        2.78457590972886        0.92308442293213
C           -0.52773776140759        1.03799143473996        2.04822841755449
N            1.29400401901349        0.37275178478632        0.64435632909111
C            2.52340160592541        0.51904787510285        0.04429769024955
O            2.95972877935025        1.55496295792872       -0.40431974671405
C            3.23362805875718       -0.77148213012318        0.03164708277546
N            2.76461372889701       -1.90571298743416        0.46643293215480
N            3.72518449031619       -2.83531124015690        0.24938519059929
C            4.72709800575164       -2.21475629726872       -0.30748123443811
C            6.02139442836585       -2.78736013532435       -0.73302053646115
O            4.47197603388199       -0.91081928955109       -0.46989103506746
N           -1.23208577721440        0.03305963759359       -0.43028096345377
H           -5.61616861989648       -3.26055184380445        0.26490055472916
H           -4.11768229472274       -3.68877935202267        1.15251298866645
H           -4.18312903009863       -3.87312193091396       -0.62200947770518
H           -5.08309357313480        1.55599475497641        0.47923385667345
H           -1.29893996090001        3.31233193719776       -0.61633966834859
H            0.73432646220369        2.32784350170733       -1.79968842505915
H           -0.55183267283053        1.45131255001987       -2.64965081079775
H            0.77908817174241        0.55149400860830       -1.89822661822033
H            0.09315285840991        3.44995960193832        1.29958876981808
H            1.23712341767983        3.16966324398646       -0.02289463019917
H            1.69763606357700        2.77209790835323        1.62902544699974
H           -1.41544439390939        1.66529310976961        2.09052302678108
H           -0.82602195942289       -0.00864905305298        2.05126740554244
H            0.07442447970833        1.23391451174786        2.93496920489306
H            1.02946639324194       -0.57106672756041        0.90537937775780
H            5.98670072785516       -3.87182591342897       -0.65554007402091
H            6.82136081470488       -2.40372441904509       -0.09759306012652
H            6.23763878464775       -2.49414641060115       -1.76052511100368
