46
 energy: -87.062386329270 gnorm: 0.000506399120 xtb: 6.5.1 (579679a)
C           -6.81368088507064        1.44956012251979        1.60613890524298
O           -5.76306364117359        1.25225144471893        0.65958531950394
C           -4.66632187125883        0.63440640149529        1.10862261309620
O           -4.54545803313738        0.26123520872238        2.25609795453696
C           -3.62569776621275        0.44634416844809        0.06311089513432
N           -2.50093473812591       -0.19298651874590        0.50304812947273
C           -1.50993548165232       -0.46475372730812       -0.28559901261713
C           -0.34354267411757       -1.22298553713015        0.34323137593994
C           -0.52190603962856       -2.71372793400090        0.00390083753458
C           -0.39232055050703       -1.03741839388905        1.87085771829649
N            0.90637764669830       -0.69194596289996       -0.18920274100707
C            2.15218749114867       -1.16577994290939        0.30028456656861
O            2.26701182067418       -2.28479340971348        0.82893208678309
C            3.18463442755046       -0.23712899132623        0.04487256503634
N            3.01435709397379        0.96704507369692       -0.49274091687034
N            4.14350436166683        1.59358384486692       -0.60652873053347
C            5.19800622384082        0.70507299838662       -0.08904700673209
C            5.90623005300363        1.37606518162323        1.09819843044680
C            6.19580435973722        0.37741024563924       -1.21165856274576
O            4.53274363150842       -0.47579827472935        0.33792239939104
N           -1.54591053293527       -0.13748500018192       -1.62084632729694
C           -0.49625715324047       -0.44732567605976       -2.59550883576071
C           -2.61594069955923        0.55389758080841       -2.15550395218315
O           -2.65461773230829        0.89325421481281       -3.33922204677359
C           -3.70745461437460        0.84261527688054       -1.24563008228514
O           -4.74883490946566        1.49586206589165       -1.78757156951642
H           -7.60157771461519        1.99436972441769        1.08964950803362
H           -6.45124314027201        2.02767517864103        2.46032899418921
H           -7.19017814516392        0.48546137511453        1.95799669304589
H           -0.40798931686850       -2.88911248908498       -1.06393735933481
H            0.21626808374986       -3.31055909840363        0.53636618982927
H           -1.51892012722091       -3.03263461178801        0.30595353841024
H            0.43400906056578       -1.57852422033038        2.32886527605746
H           -1.33079971736148       -1.42293901222949        2.26560401975628
H           -0.31290944634712        0.01954592758316        2.12210247667152
H            0.89752982890572        0.31850744072554       -0.28568712274028
H            6.65847693151776        0.70741908617861        1.51298725250511
H            6.38360789102873        2.29660937701399        0.76879086296851
H            5.17386033060821        1.61050675302131        1.86895590516991
H            6.96098859267569       -0.30578286314367       -0.84713224084274
H            5.66565422761732       -0.09062236996251       -2.03957738608273
H            6.66662116080426        1.29322019574172       -1.56299812584877
H            0.12817480155629        0.43410539729792       -2.74526717959230
H            0.11463696048812       -1.27565142098555       -2.25448098880017
H           -0.97912753462157       -0.70677149030710       -3.53750783115135
H           -4.55606251408439        1.64870366088406       -2.73167949490648
