42
 energy: -83.602457158657 gnorm: 0.000783843943 xtb: 6.5.1 (579679a)
C           -5.49573368234780       -0.27071714666532       -1.89937323607541
O           -4.88174733203662       -0.38442763367683       -0.62361700113415
C           -3.52725064778420       -0.55767000347883       -0.61950025946333
O           -2.90574976642770       -0.65541129356734       -1.66865322445495
C           -2.92046677556791       -0.41260119473179        0.78447793787881
C           -3.84126279815939       -1.00907618315212        1.86264249375409
N           -1.62337135305590       -1.06016313963402        0.83690829326489
C           -0.57401556400271       -0.31233843567554        0.58407874316185
C            0.74686626027203       -1.10515057242191        0.55206894956746
C            0.62817285274387       -2.25901390542336       -0.45371966501171
C            1.02882745830148       -1.65180044513575        1.96039835952119
N            1.80021555626865       -0.18427565444951        0.14593273032718
C            3.10306677457887       -0.49281821822024        0.01355159079220
O            3.58880692905626       -1.61939930343523        0.19030366784040
C            3.90105687171583        0.67292721595178       -0.38637795802505
N            3.44987301431450        1.88621129188426       -0.61620973230815
N            4.53060993070994        2.64880765685462       -0.96224684118569
C            5.56459395285411        1.87219204189736       -0.92685331792956
C            6.97055617874546        2.23718735965967       -1.22059539837894
O            5.25169443433360        0.60958282699984       -0.57305960858404
N           -0.46368490727712        0.99318916063109        0.39077517955342
C           -1.61749846320968        1.76608475806387        0.58256707076810
O           -1.55812598266403        3.03855466955659        0.58302687943888
C           -2.80293418728275        1.07946361497313        0.83993890500332
O           -3.97889706876405        1.81828461222856        1.09564073673856
H           -5.25599091142769       -1.13827287593020       -2.52417505549343
H           -5.16410050245529        0.63733720294267       -2.41547367423772
H           -6.57204517658615       -0.22603392267600       -1.73516425577595
H           -4.00528803358721       -2.06922554460500        1.66998659367987
H           -3.36679153273275       -0.90129688909385        2.83776437863067
H           -4.80177791531522       -0.49597354733919        1.87674669498833
H            1.51334667720910       -2.89375496823628       -0.42908694397666
H           -0.24696322172776       -2.85762829223422       -0.19874675807117
H            0.50260469696804       -1.86577458686606       -1.46332521992182
H            1.91471529462563       -2.28617672582475        1.96481628026588
H            0.16983950596584       -2.23692359877885        2.28952310436575
H            1.18155926564908       -0.82825906514174        2.65845374559653
H            1.48716689856936        0.78563085167258        0.03386399980498
H            7.60456652357720        2.01310324311416       -0.36324579900587
H            7.03042775719297        3.29880949959195       -1.44668148495665
H            7.34142104219504        1.66603331617463       -2.07152494584442
H           -3.70629105343955        2.75078682420581        1.04824804489475
