42
 energy: -83.009611512412 gnorm: 0.000720213866 xtb: 6.5.1 (579679a)
C            5.93430620463236        2.58583584681268        1.31977935187010
O            5.03946633309081        1.48493790076320        1.14077077200079
C            3.92146907353866        1.73098618291858        0.46185354911217
O            3.64897422408663        2.81710417162854        0.00272228619686
C            3.03754676328155        0.53554308098255        0.32740921509991
N            1.89078101483135        0.77239365106764       -0.37905163042918
C            1.00899284381811       -0.15031589261278       -0.58265420964914
C           -0.19328485246462        0.24661703512356       -1.43105986886782
C           -0.16532308282448        1.76142214159195       -1.68174904748216
C           -0.14630265011062       -0.49963164336148       -2.77231656617450
N           -1.41043858446528       -0.06887382087799       -0.67299740302467
C           -2.65851760017547        0.03781738779020       -1.18859115267520
O           -2.93349395203860        0.23881516854096       -2.35588280925574
C           -3.67582788548946       -0.15405007746062       -0.12353974633564
N           -3.43563644658069       -0.28952238812744        1.14632742161934
N           -4.64258343502315       -0.42845060536025        1.76154362530873
C           -5.54320745062727       -0.36833822853413        0.82724067618508
C           -7.01072285953139       -0.47721049329327        0.97893697507457
O           -4.99445805570025       -0.19337630056107       -0.38388113218979
N            1.17260792870383       -1.42545415197724       -0.09895810251716
C            0.23649295017854       -2.53428530892081       -0.29595671209157
C            2.30519088432953       -1.77628767824279        0.61128304614920
O            2.48541747785170       -2.91331848035317        1.03682829250611
C            3.27558016191889       -0.71323139395182        0.82937636867427
O            4.36160200728741       -1.06561324992185        1.52569928240740
H            6.27278808927741        2.95733671703640        0.34953377901493
H            5.43407693606308        3.39291166364577        1.86040253881380
H            6.77793694312015        2.21126418476077        1.89584321106617
H           -1.04377698613729        2.04811307589036       -2.25724813918547
H           -0.16567900845392        2.29780556308070       -0.73434721652859
H            0.73112390155144        2.02795788733875       -2.23887821415579
H            0.85811947251871       -0.41911066076011       -3.18555980826897
H           -0.85086759135173       -0.05646371168386       -3.47293138383736
H           -0.39407988206515       -1.55068226948413       -2.65220630675685
H           -1.33460450297247       -0.08330371734395        0.33388083742125
H           -7.49935763008095        0.38031836482919        0.51742339571821
H           -7.26637846409452       -0.52283887546373        2.03464860204841
H           -7.36944319726241       -1.37801384292860        0.48043172356014
H           -0.74833337124430       -2.16561940914634       -0.55689309565024
H            0.61774863604406       -3.18632336944474       -1.08171727514490
H            0.18320057055671       -3.09686765403433        0.63606498954521
H            4.28889707201498       -2.00999279995592        1.76034888082348
