42
 energy: -82.941971386260 gnorm: 0.000259375211 xtb: 6.5.1 (579679a)
C            3.27363828427131        3.71562171966177       -1.70558133747339
O            3.46061466479065        2.33669218798671       -1.38325694589474
C            2.40671229460563        1.70406542670504       -0.86677568016888
O            1.33702274004531        2.24963143995630       -0.68056163892479
C            2.65535194658026        0.28033485917001       -0.53126822483017
N            1.57367793355477       -0.32781058446819        0.00295286077677
C            1.61376626983705       -1.56876751152685        0.38956716291792
C            0.38480807081880       -2.18774084972260        1.01522514904464
C            0.64195681516470       -2.40747278808841        2.51526345201770
C            0.00751409326532       -3.50281319165291        0.31938333491711
N           -0.69287678447670       -1.22081042410398        0.83103568946024
C           -1.94127369682080       -1.38426668716098        1.29526629550937
O           -2.35417390963237       -2.33096049106834        1.94558292697635
C           -2.83385196097937       -0.25510291862576        0.91477157991534
N           -4.11542596199352       -0.12166427228640        1.29757413710922
N           -4.59059811111644        0.94328183269853        0.76582096624660
C           -3.57402206835499        1.56729472377878       -0.03954591820614
C           -4.00159139075590        1.57184899885364       -1.51009625683028
C           -3.25338633314311        2.97000312425536        0.47912393019412
O           -2.43818080874059        0.71429779451152        0.12667780504139
N            2.74434889330297       -2.31326829097903        0.28847315121033
C            3.93253101802239       -1.84315548308262       -0.25039299386516
O            4.89862111556209       -2.57634542803743       -0.32020562479802
C            3.90837106076588       -0.40065501844670       -0.71742874806137
O            4.92487141515133        0.08897726673036       -1.20518778174127
H            3.04600334083271        4.28524357604053       -0.80120087275072
H            4.20534179455115        4.06469153735273       -2.14696325358508
H            2.45105593434532        3.82910426295885       -2.41574438420366
H           -0.22945658070121       -2.86708332212779        2.97761146672813
H            0.84638661759136       -1.45397033624532        2.99929535766199
H            1.49914322548475       -3.06490193833999        2.64364241859956
H            0.81199007361640       -4.22642394501483        0.42885837745011
H           -0.89322071594883       -3.91049455061047        0.77476434092557
H           -0.17429060754151       -3.32508674318247       -0.73912500696733
H           -0.44497365251750       -0.37420521856315        0.32638104865729
H           -4.90984961044939        2.15996181708736       -1.61368543275782
H           -4.18793981880757        0.55018268458836       -1.83385413880067
H           -3.20878485828788        2.00684688847599       -2.11353286356318
H           -2.95651335222738        2.91147529096437        1.52394889383246
H           -4.13787193124913        3.59468637331976        0.38437317464812
H           -2.44089276808602        3.39103215347824       -0.10840450758309
H            2.75544731966864       -3.27227496524173        0.60034909117687
