16
 energy: -33.394946805606 gnorm: 0.000985671302 xtb: 6.5.1 (579679a)
C            3.92081965130665        0.59937641851618       -0.01957945812290
Cl           2.30602213809135        1.33146783305766       -0.23050518450699
C            1.18083108428909       -0.10386317910553        0.02211701695650
O            1.66675959628591       -1.16106276261983        0.21138300045267
C           -0.17275853997674        0.34580777445035       -0.05843575205468
N           -0.60171028607302        1.56599385978528       -0.28504578886441
N           -1.93180737762979        1.51961879439180       -0.27194941289908
C           -2.27392807820142        0.26900325225029       -0.03518271621150
C           -3.63657507944832       -0.27454958253095        0.09356233058607
O           -1.20578932699568       -0.50572951283104        0.10550109902488
H            3.82068912950997       -0.48282423463159       -0.08728549309130
H            4.30454543037589        0.88828291157290        0.95495009127429
H            4.55027129885276        0.97820923008273       -0.81915635345099
H           -3.67855412535008       -1.28118549715769       -0.31956028402278
H           -4.34592791750083        0.37719342976661       -0.41214727796878
H           -3.90288659753396       -0.33122973499812        1.15133518290712
