21
 energy: -30.735403151695 gnorm: 0.000448805504 xtb: 6.5.1 (579679a)
C            3.84141920293946       -0.17668004428382        0.34859940448157
F            2.74230281276031       -0.28494991615030       -0.57616906008308
C            1.30837425506161       -0.15996932345721       -0.27434130816645
C            0.60097770068469       -1.33187266890761       -0.20529898817576
C           -0.75919313385258       -1.20164719262980        0.05221828431430
C           -1.33898003448171        0.05464844745199        0.23602294253126
C           -2.83106292943999        0.17996895973548        0.44949233958606
N           -3.50330035296548        0.31408780750077       -0.83976197993841
C           -0.54571312293918        1.20006308156753        0.15103683033302
C            0.81711758843344        1.10869785587737       -0.10790397337816
H            3.89472294939001        0.87093090398139        0.62970636897994
H            4.69695062173076       -0.51180449705818       -0.22991356850188
H            3.59967057596904       -0.83098808776401        1.18109519875089
H            1.07151067579058       -2.29461529492636       -0.34553637319280
H           -1.36696652807973       -2.09592333925334        0.11667084772666
H           -3.05558165634429        1.06338809904164        1.05271864530666
H           -3.21853759320224       -0.70749847887419        0.95664467252294
H           -3.27606851890653       -0.48921088647076       -1.41077216180908
H           -3.13979230994144        1.13168561111933       -1.31132566763751
H           -0.98680750151282        2.17921265008490        0.29264613150811
H            1.44895729890643        1.98247831341497       -0.17542158515878
