43
 energy: -83.179230390237 gnorm: 0.000621952446 xtb: 6.5.1 (579679a)
C           -4.85058151330719        3.41614433320118        0.09456942951930
O           -3.75166091483724        2.49369174665670        0.19410057319397
C           -3.80922972161779        1.41917749781050       -0.55311593568837
O           -4.72005354335755        1.15374350474888       -1.31239179814729
C           -2.62724101345552        0.51169348466642       -0.40038943429922
N           -1.65738828310186        0.87231118444823        0.46118216175264
C           -0.61339528233430        0.11359807296699        0.61233245201898
C            0.45729357121584        0.46329014971728        1.61495083581371
C            0.45296492692553        1.96876161107967        1.89835345500628
C            0.16555335239770       -0.35180899635220        2.88732249102416
N            1.74217775033690        0.05913255502039        1.04058899761869
C            2.91134765211077        0.17657628572345        1.72922974729700
O            3.00750419937151        0.47859139095854        2.90246899131664
C            4.08678652241931       -0.14102483919210        0.88728445236090
N            5.33601146099394       -0.14475810718092        1.23180307966471
N            6.04749887806413       -0.50361928580843        0.12836897853402
C            5.18987763887198       -0.69737249522274       -0.82450066215286
C            5.45657025671551       -1.10228025688857       -2.22112524443381
O            3.92908727442868       -0.48350727780191       -0.41066059437567
N           -0.50050740509413       -1.05686451673616       -0.07999053881345
C           -1.41737663815769       -1.48428000249978       -0.96232549805585
O           -1.12457260995457       -2.61812500570106       -1.53488803562306
C           -1.95427818338240       -3.24812664273101       -2.52906194503733
C           -2.56237242432440       -0.66177090608280       -1.14756025152784
O           -3.49937963082186       -1.04106406077371       -2.00328512219778
H           -5.77579597197980        2.91609463525758        0.38637231816025
H           -4.93551486157682        3.77391201154034       -0.93301367227148
H           -4.62401654972903        4.23636304335113        0.77202258023612
H            1.19848646710599        2.19897009907172        2.65764475522286
H            0.68457848498418        2.51697008467676        0.98705227002653
H           -0.53042642059185        2.26983916755543        2.25493960584735
H            0.87340324332644       -0.08464043010419        3.66964577644648
H            0.25152434608405       -1.41493253026632        2.67158914377277
H           -0.84517689765403       -0.13631609662488        3.22959871393844
H            1.80383981755554       -0.00625915096886        0.03898504394332
H            5.12934631667569       -0.31721838435165       -2.90318866204745
H            4.89435859196430       -2.00535315370257       -2.45700147214231
H            6.52064320384301       -1.28450455395358       -2.35611963511201
H            0.31308743684471       -1.64757887209989        0.04975165965841
H           -2.07704552011095       -2.58757324831835       -3.38755008977504
H           -2.92553415877437       -3.49954696508092       -2.10199895036703
H           -1.41661722498706       -4.15087556745285       -2.81557202359675
H           -4.23377462309015       -0.36945851255807       -2.02975994670999
