42
 energy: -83.018442117267 gnorm: 0.000361195632 xtb: 6.5.1 (579679a)
C            5.55725936363262       -2.19530280101336        0.25741497023234
O            4.33456304458776       -1.45321239676839        0.20521013066459
C            4.29851225294627       -0.42641071232093       -0.63250897538904
O            5.24045678407540       -0.10822958135832       -1.33808299058791
C            3.01319689724014        0.30819425304024       -0.62938602671990
N            2.01433017520940       -0.16512385221272        0.17083140547034
C            0.87351312279307        0.44396290708501        0.23151727340302
C           -0.14854202342673       -0.18390085589523        1.17005612640201
C           -0.18259155275582        0.57485376654723        2.50104136785304
C            0.23327029263788       -1.64964815784770        1.42781439280533
N           -1.48536575634873       -0.16105545190999        0.57715048669920
C           -1.70596796684434       -0.62089398400475       -0.67478997420776
O           -0.82738484723067       -0.93348220365274       -1.46098872110287
C           -3.14619019951854       -0.67234559313396       -1.02268418288954
N           -3.68070073797216       -1.02126508665061       -2.15130024182847
N           -5.03043149878545       -0.91776478699031       -1.99569858467811
C           -5.23719302143351       -0.51267943598697       -0.78140826907184
C           -6.53182763999352       -0.24460412945106       -0.11926772628846
O           -4.08575785264489       -0.33703667275340       -0.11203103548306
N            0.63451927938555        1.59801449619973       -0.46510021508953
C           -0.59828726425668        2.38082950714741       -0.37829172131645
C            1.55701183063525        2.13186567284036       -1.36402987375603
O            1.28338200470886        3.12936653510020       -2.01669144966577
C            2.82881956362063        1.41621478037551       -1.41723695614207
O            3.75104602330722        1.91477113766607       -2.24536371821323
H            6.38475986538401       -1.53354976309504        0.52255716925011
H            5.42389269256479       -2.96036114910931        1.01921057092481
H            5.75791233249665       -2.65453779296146       -0.71317262962450
H           -0.87648549494001        0.08555063895449        3.18199469776843
H           -0.49794204345595        1.60666460604360        2.36593513261955
H            0.81121020562493        0.56805448375140        2.94641053707425
H            1.18844259568199       -1.69699046005891        1.94708807261343
H            0.31700093444213       -2.18709735371513        0.48407872676263
H           -0.53355693583706       -2.11775009058757        2.04168756891109
H           -2.26632244317610       -0.02706822459737        1.19553521659421
H           -6.61877619925873        0.81778434337701        0.10880140610166
H           -6.58830918179709       -0.79409295816970        0.81963838231395
H           -7.34846379214023       -0.54352999217660       -0.77209017560212
H           -1.15564543701565        2.12672121290884        0.51310552455041
H           -1.20865128780839        2.19539247055029       -1.26302649366554
H           -0.32612664291596        3.43619783723760       -0.34893332626806
H            4.57742355858463        1.38349783759990       -2.19575987141865
