42
 energy: -82.914070340307 gnorm: 0.000465051577 xtb: 6.5.1 (579679a)
C            5.98085660572979        1.13595578157420        2.43527745570270
O            4.84791545944896        1.26445023947036        1.56547346422804
C            4.06853332255315        0.20725118378398        1.44411210668295
O            4.23644345289333       -0.84438357550723        2.00648054216572
C            2.90308501291663        0.46058896319618        0.51131400040537
N            1.91040428853267       -0.35203335892868        0.59039138388461
C            0.86837906185610       -0.23175915730905       -0.32872294572097
C            0.03478105990981       -1.48579717540572       -0.54071549748507
C            0.34137393379071       -2.50560718682042        0.56557989308260
C            0.34746012261305       -2.11179717514733       -1.90213725143016
N           -1.36142498083451       -1.11336243133970       -0.36976555739206
C           -2.20995481377863       -0.53483469390160       -1.41934688354414
C           -3.05473125690095       -1.64382362289697       -2.06312738481028
O           -1.50144508834436        0.11778840676546       -2.42391262270621
C           -3.15408992797048        0.44786924035705       -0.74346347697114
N           -4.14214806276094        1.05816586703566       -1.30642587188501
N           -4.72098103230030        1.84468495795930       -0.33963404484668
C           -4.04530017915966        1.65421920460446        0.74403287002202
C           -4.26776535123296        2.25793829750215        2.07726695393524
O           -3.03376414658659        0.77930301272409        0.55669413154735
N            0.55917106902666        0.88114020798815       -0.89636953927474
C            1.39329076597416        1.98876870289685       -0.77392697630042
O            1.03263354086970        3.12024057011566       -0.95876122202669
C            2.85313193472533        1.62078628754708       -0.43120321324949
O            3.80523717065434        2.22182666202242       -0.85191317374244
H            5.64414676348151        0.91475483374312        3.44980825789252
H            6.50302960561823        2.08935445146642        2.40473868003897
H            6.62790511319683        0.33056535097727        2.08266299578563
H            0.15584487249675       -2.06872524069873        1.54497417931298
H            1.38409952373686       -2.81325310913801        0.51020659695861
H           -0.30123662973279       -3.37421993715747        0.43633509532615
H            1.38555533820804       -2.44173347018672       -1.90828143965930
H           -0.29398063038668       -2.97691020181049       -2.05907869759339
H            0.20222301200365       -1.40430500727557       -2.71449432759263
H           -1.49496734212457       -0.65327904254227        0.52292816329969
H           -2.40856439081692       -2.31578254925810       -2.62212903753177
H           -3.57358220789950       -2.20293424492405       -1.28849540802560
H           -3.77976169386527       -1.19371823779727       -2.73992653631365
H           -4.46362588036373        1.47597963363873        2.81059601526749
H           -5.11636905825199        2.93663845233224        2.03432840959673
H           -3.37923206582744        2.80260723559059        2.39561357732577
H           -0.78257729108241        0.65738087476647       -2.00698566436778
