46
 energy: -87.072313883828 gnorm: 0.000642257048 xtb: 6.5.1 (579679a)
C           -2.31632221274401       -0.93153858172233       -3.54634086311756
O           -1.90963300517942       -0.15205408774143       -2.43920854212576
C           -2.37709393494241       -0.58317390253502       -1.14333312157951
C           -1.70265786539731       -1.91194617716186       -0.75688235687157
O           -3.75815990854154       -0.76898022647201       -1.15248705449457
C           -1.99092206222557        0.53302996067319       -0.17077103201025
N           -0.74022263639288        0.47557688314917        0.35243556325306
C           -0.29244781554655        1.37199036175497        1.17532910413998
C            1.11856690191579        1.12885577580439        1.72768051273797
C            1.04647681682220        0.60319619833373        3.17191585650109
C            2.06373971621326        2.33358732280109        1.60350531412822
N            1.66500195887631        0.05527752198884        0.88628007301639
C            2.83523356476389       -0.56219845368861        1.06910519317792
O            3.67321804466459       -0.29483254141533        1.92216834375867
C            3.06250369237623       -1.65592882977302        0.08158598645261
N            4.09781891819500       -2.43271274523433       -0.00858799497581
N            3.86789724465072       -3.27672408896662       -1.05630411360045
C            2.70686075560234       -2.96149526155347       -1.54022431633033
C            2.01369738900822       -3.57392880948939       -2.69479929820554
O            2.14387342651657       -1.94603069620773       -0.86619348134585
N           -1.08912223215806        2.43947766015203        1.55090795947779
C           -0.63141732887190        3.50084453883650        2.44430015033050
C           -2.38101570833025        2.60812691895707        1.05049183959176
O           -3.03717676086435        3.60591282088686        1.37049466819695
C           -2.88852146232078        1.55047012731958        0.13989349064614
O           -4.08083264316475        1.62205332767417       -0.30467890724583
H           -2.12739485010394       -0.33867186527462       -4.44459996684700
H           -1.74437151030999       -1.86626622832174       -3.61901661464671
H           -3.38540351670458       -1.17439389590062       -3.49934244392363
H           -2.05137501807082       -2.71030134540426       -1.40852714742297
H           -1.96114564348952       -2.15675369512362        0.27171468212243
H           -0.62214736745878       -1.81684860813080       -0.84424824071028
H            2.05042323092481        0.43184803671033        3.55693989274346
H            0.49313447402875       -0.33491650048300        3.18965085559867
H            0.54471796991594        1.31560792839925        3.82147278691426
H            1.92955540047689        2.82030155575902        0.63857609216033
H            1.89604303987585        3.05507897117580        2.39732531798996
H            3.09478440161913        1.99243485931904        1.68365219166902
H            1.01831721878491       -0.29456454947622        0.18037925684714
H            2.56541218591881       -4.44853496938887       -3.02973092554379
H            1.94723438022895       -2.85532253393391       -3.51217697801530
H            1.00109675629899       -3.86213555393490       -2.41469224851359
H           -0.01815637250109        4.21853167641975        1.89803656813239
H           -0.06974315820910        3.09178782245257        3.27786986233630
H           -1.50783486677531        4.01821947133840        2.83722469379138
H           -4.15249060738967        0.13804340741320       -0.92195860817043
