47
 energy: -80.218639513686 gnorm: 0.000294041702 xtb: 6.5.1 (579679a)
C           -3.39746495824172        0.84343508279891        2.16160657793949
N           -2.43046811378209        0.80202957390429        1.06934885279254
C           -1.51831232749811        1.84015682574650        1.02619800162119
O           -1.68649968141090        2.87665702226154        1.71281251655224
C           -0.38712310662858        1.65894743301566        0.18739783110858
O            0.49344945514577        2.75696838176020        0.12526688287930
C           -0.10964970219070        0.41241926552479       -0.36871434612940
C            1.17098643897250        0.06038256820091       -1.06794649708190
O            1.31571676421191       -0.99823686990469       -1.68287023263021
N            2.17552272138380        0.97205707947583       -1.01496382901391
C            3.49458295511696        0.65185033913987       -1.53738623440858
C            4.34369492315508       -0.02232507943556       -0.47846163047075
C            4.13244406642374       -1.36393645483790       -0.16201153672780
C            4.88115313988052       -1.98367612746710        0.82768787648556
C            5.84017794990563       -1.23741436774303        1.48896976484969
F            6.57076782859124       -1.83174589898975        2.45078887707030
C            6.08139659897429        0.09236799114123        1.19891904284922
C            5.32042524505030        0.69632100463005        0.20618581106135
N           -0.95296879240440       -0.60502977725293       -0.29375551637747
C           -2.27280006966361       -0.42545161515846        0.25979354547860
C           -2.52375567042855       -1.66742481431126        1.14368086766033
C           -3.28321501747550       -0.38535850824334       -0.96975513375903
C           -3.07087397899182       -1.62062750480751       -1.85621723743635
C           -3.03540342014231        0.88096483082898       -1.80144767790870
N           -4.69182212097613       -0.36414214187463       -0.57712049771017
H           -4.28592720046904        0.26617821229850        1.91589003166141
H           -2.96839212626062        0.45092253802754        3.09127757508585
H           -3.69074110905187        1.88241024092467        2.32714398381038
H            0.11721736567081        3.41929365120209        0.73199922513538
H            2.11722242794114        1.76664133343253       -0.39572678019593
H            3.37055785624621       -0.01212223788858       -2.40007442373589
H            3.96871028819221        1.57942295947891       -1.86861269201558
H            3.37694743291454       -1.92958108826938       -0.69727816229681
H            4.73088047594471       -3.02483599256581        1.08253244380505
H            6.84520625498948        0.63993681509344        1.73489207783431
H            5.49714558504991        1.73759047059076       -0.03728613197638
H           -2.20696884352195       -2.55627044861833        0.60027670609843
H           -3.56861477556839       -1.78017621605159        1.42315964967119
H           -1.92188127450083       -1.59265856638140        2.04867919532635
H           -3.40447267274225       -2.52386811428838       -1.34600672583669
H           -2.01384873890436       -1.72695600623435       -2.10543684934348
H           -3.64694536320895       -1.52000640093655       -2.77721987142600
H           -3.73709000158105        0.91488934104099       -2.63598448096081
H           -2.01953999725475        0.89022918576605       -2.19705920692593
H           -3.18461107435447        1.77261599628469       -1.19181249316504
H           -4.92768990750168       -1.16628332934277       -0.00950198826607
H           -4.90712672900725        0.47344041803472       -0.05243416097902
