42
 energy: -83.006595675482 gnorm: 0.000420310117 xtb: 6.5.1 (579679a)
C            4.58805145298661        2.77562458394737        0.23635704393480
O            3.57649482790400        1.75881099205540        0.25873186496518
C            3.94939590031725        0.54049886737282       -0.09411571382029
O            5.06543625648521        0.23957518740776       -0.43479853811064
C            2.77933005643844       -0.43001085904834       -0.05642175034806
N            1.68725881744751       -0.00217014991105        0.73284295039264
C            0.56808535646135       -0.59955873331615        0.61560015321581
C           -0.55615176933677       -0.29464904610044        1.58286265350587
C           -0.28108962610768        1.01140708641009        2.33240923400542
C           -0.64820555775114       -1.48574349232785        2.54950072652326
N           -1.79264761032895       -0.16879178537010        0.80331185578767
C           -3.01086172559723       -0.02204434150995        1.37644063268319
O           -3.25040849541606       -0.11055257357616        2.56729765404931
C           -4.07551467075372        0.23516951478180        0.37520182484622
N           -5.35252054441006        0.32669504164642        0.57971996466644
N           -5.93011171635819        0.55564314019426       -0.63261318511824
C           -4.96999310442639        0.59220828916922       -1.50342986640710
C           -5.07275809244926        0.82442875004908       -2.96019774574134
O           -3.77044297429250        0.39625737599835       -0.93135369543149
N            0.30339436608699       -1.55678983388024       -0.34243224858583
C            1.14063259204387       -1.82154667004331       -1.40124951069565
O            0.73936956464384       -2.35270533827900       -2.41377012766565
C            2.56126081269010       -1.38616139824267       -1.19590196596289
C            3.44672487221390       -1.45117185504863       -2.41697780001523
O            3.11323643542257       -1.78274520923547        0.03372873652510
H            5.33729558021415        2.56994529873442        1.00359378929378
H            4.08357973186061        3.71715605759326        0.44015327771277
H            5.06693392369729        2.80138781666255       -0.74444986118389
H            0.65792213006152        0.92799945925638        2.87722137863179
H           -0.20684989492072        1.83586712926554        1.62564211723647
H           -1.08841755822430        1.21063693520535        3.03479043350795
H           -1.36361084433193       -1.27800093718933        3.34207770836550
H           -0.96007715796202       -2.37876152368127        2.01115565897860
H            0.33085351399151       -1.66106591673046        2.99323407939285
H           -1.70744535950361        0.08352623921695       -0.16756302753647
H           -4.49146816591914        0.07610817661701       -3.49727040897914
H           -6.11481217387650        0.77721927569753       -3.26801774355879
H           -4.66818379889240        1.80661403212195       -3.20710688700105
H           -0.65158906004211       -1.86075858160982       -0.46033868229908
H            4.49084046095239       -1.34496144897963       -2.13292024004880
H            3.30186427111871       -2.41328523855443       -2.90797644526759
H            3.17519497786976       -0.66129831677451       -3.11480529444614
