43
 energy: -83.872135983020 gnorm: 0.000893095945 xtb: 6.5.1 (579679a)
C           -4.12222349307164        2.60227821227326       -0.92727383624547
O           -4.53940742364883        1.55415915931096       -0.09329444286584
C           -4.01887134994109        0.19162671015480       -0.51666311588906
C           -5.02275039850672       -0.78182564287290        0.19576977228183
O           -3.92249147071785        0.03512388454699       -1.78805050736737
C           -2.63566060899051        0.04158923725865        0.26828440483272
N           -1.59258217469850       -0.42301806988844       -0.49489863341938
C           -0.43672796019414       -0.62248166783345        0.03241528975652
C            0.70163081778445       -1.19303753679703       -0.79171924832340
C            0.86115743697636       -2.67908035189859       -0.45664022673526
C            0.43543267273170       -0.99423259455490       -2.28590063652788
N            1.95010025934876       -0.52294351173153       -0.40848741642833
C            2.08774034349022        0.81822144165761       -0.45062810390334
O            1.19317807672230        1.60444228230858       -0.71234738277819
C            3.46194751179062        1.26952465754260       -0.11091503925869
N            3.89299863767083        2.48932010919620       -0.02243031537118
N            5.21094452997434        2.41706665102098        0.31918829261785
C            5.50254888767737        1.15797728632971        0.41695771505556
C            6.80621120731936        0.55181169453310        0.76266781907940
O            4.44042016008311        0.37762132352318        0.15766156998790
N           -0.18178165208616       -0.40056987198782        1.35562853519363
C           -1.14669189393338        0.06337551964235        2.22159787978329
O           -0.90640329315308        0.25862003419719        3.41593070347330
C           -2.43275786458632        0.28107802259878        1.59927599849977
O           -3.40881724128136        0.72472114789464        2.44395178420165
H           -4.26106756072673        2.35998283570623       -1.99361670257938
H           -3.06043803136305        2.86187172717682       -0.77121484458225
H           -4.72751400658903        3.48469213610511       -0.69345006190399
H           -4.65379973373977       -1.80081189941342        0.09604818557879
H           -5.14429923448904       -0.53593653873491        1.24778071177481
H           -5.98412969657394       -0.69969844410223       -0.30942629500849
H            1.05707345499598       -2.80552758678587        0.60650632101904
H           -0.05004922573245       -3.21686390026587       -0.71503015391126
H            1.69085648388081       -3.10160610307262       -1.01955089087551
H            1.24845581379368       -1.42489281427907       -2.86593483960293
H           -0.49953052090763       -1.48691193092726       -2.55162784217257
H            0.35308327577910        0.06759979519642       -2.51621652923867
H            2.76248884497512       -1.09219182131095       -0.25629536134232
H            7.13653980492335       -0.10301295611692       -0.04324981145445
H            7.54401231716564        1.33371981697345        0.92464592718863
H            6.70797763650731       -0.05133674939334        1.66508754870835
H            0.73049273404389       -0.59556611439767        1.73199111441257
H           -3.02729407269663        0.79532142121785        3.33347066433576
