42
 energy: -83.655501220757 gnorm: 0.000859495123 xtb: 6.5.1 (579679a)
C            5.10163499614286        2.36795486882963       -1.69391123895385
O            4.13780437831544        1.46975136775193       -1.15415048530276
C            4.24601863109372        1.20500814385145        0.15702681336558
O            5.12898059099587        1.71118011677515        0.83908332215760
C            3.22926250192648        0.27877401406447        0.66927027216001
N            2.31527025764368       -0.20784860183864       -0.22198723081794
C            1.40515128204558       -1.03487922484266        0.25208150051217
C            0.38699723449135       -1.60504188433122       -0.73608885561790
C            0.67996459970406       -1.09987989444688       -2.15630953656383
C            0.48273790867557       -3.13847445997179       -0.67571102506040
N           -0.93286575499221       -1.16588353524220       -0.27881155429051
C           -2.08678312747154       -1.41347021152298       -1.01986463697781
O           -2.13392495050650       -2.29944422860753       -1.90315935594938
C           -3.19992888612053       -0.62108164131095       -0.64265758532346
N           -4.42332093940231       -0.67514358731350       -1.14470458166704
N           -5.20797168688174        0.19701917113241       -0.57824197195225
C           -4.41274428304975        0.91854018807559        0.42865560729701
C           -4.38622641232611        2.41961030496434        0.09286221112633
C           -5.01605100141505        0.68865951454532        1.82620169077191
O           -3.10396273814923        0.37048331524827        0.36048722356114
N            1.28117327346558       -1.44795888845269        1.51080776945843
C            2.15327682470124       -1.02067917742985        2.46284866092771
O            2.07715978066467       -1.39433083387697        3.64785223380424
C            3.19425379804778       -0.09009950578059        1.99691800953504
O            4.07992830793332        0.35628164357626        2.92020235395048
H            6.11129275788715        1.97315144543706       -1.55411775864984
H            4.88395888564526        2.46776423551476       -2.75589565102330
H            5.03104270854196        3.34235645069530       -1.20336349810706
H           -0.01866723240079       -1.53419755642973       -2.87034256778351
H            1.69434603399844       -1.37884448932168       -2.44019958442742
H            0.59858111310915       -0.01361173772616       -2.19107660606847
H            1.49263558484285       -3.45130108127927       -0.94110926602077
H            0.26567814719881       -3.47676974725425        0.33855764544000
H           -0.22011903348895       -3.60202146050882       -1.36635231181051
H           -0.92742781098460       -0.27911858281174        0.20875271194345
H           -3.81160519966880        2.96717148088448        0.83787925941392
H           -5.40355317576207        2.80487685586589        0.07002439115726
H           -3.93067685739934        2.56366038760641       -0.88558429839567
H           -4.42657000869434        1.20294522496447        2.58339218201538
H           -5.02538570242266       -0.37833624080367        2.04470628664881
H           -6.03707402471488        1.06382480224950        1.84893018354611
H            4.72770922877863        0.95940003906236        2.50448827197747
