47
 energy: -80.232222489471 gnorm: 0.000188365054 xtb: 6.5.1 (579679a)
C           -4.45059404885006       -2.33168715868303        0.51255256066297
N           -3.28088679212580       -1.45493803159595        0.43863456472819
C           -3.30938835980227       -0.19553340577583       -0.10695689446011
C           -4.58879796936787        0.42730899028576       -0.65296314782164
C           -5.39315507696708        1.00033721916755        0.52378297872759
C           -4.22267944623517        1.56845633145181       -1.61735946116076
N           -5.39452631179272       -0.56778122321481       -1.35300358100409
N           -2.25631110275488        0.55871339170524       -0.13914077504934
C           -1.05828186952743        0.14285921262216        0.36859141871876
C            0.05980975789878        1.14023226311703        0.23563476813648
O            0.03733289655998        2.02279979246470       -0.61316817812070
N            1.06244013672072        0.99014432810173        1.12008930691483
C            2.22263825683288        1.86710592017625        1.11804434431315
C            3.48808934114538        1.15316804959601        0.68987965526168
C            4.71129512705833        1.80612206995292        0.83379209584049
C            5.88928676347635        1.19221675856549        0.43814089904685
C            5.87862904265066       -0.09134617738832       -0.10948293067849
C            7.15655577764839       -0.76399513156771       -0.50946106034282
F            8.38050847975334       -2.12215173220700        1.91547205695116
C            4.65253055221470       -0.73930981877646       -0.24847367633523
C            3.47095256529823       -0.12528370892873        0.14270462722358
C           -0.95367646695445       -1.11218623976888        0.89069531127610
O            0.19097686388561       -1.63636442948108        1.38387116209363
C           -2.10487692314229       -1.99152605120934        0.93187012760360
O           -2.03357923671803       -3.13140155219039        1.39092404920030
H           -4.25134124830282       -3.09951600412556        1.25999885476576
H           -5.32952778045186       -1.76325423741316        0.79716006139537
H           -4.62283993964778       -2.79802977348977       -0.45611551125463
H           -4.78083354388848        1.70883217269175        1.08108222439237
H           -6.27367175907146        1.51752444885347        0.14592375542346
H           -5.71891762076444        0.21180847317312        1.19967161491008
H           -5.13410077800719        1.98278177272229       -2.04402109105394
H           -3.68503179205356        2.35595001008228       -1.09017367942279
H           -3.59399037295206        1.19186627079470       -2.42332030462904
H           -4.98729965677682       -0.76187878184983       -2.25875130020722
H           -6.32012143675797       -0.19599418982003       -1.50934664831802
H            1.01728099101897        0.27641098962926        1.82747636860918
H            2.01205159834682        2.69757373827123        0.43339772664385
H            2.34965275975210        2.28374723026274        2.12334590427543
H            4.73969371313502        2.80604214782503        1.25366551174979
H            6.82865801464766        1.72404649864218        0.55262709441389
H            6.97765863180240       -1.51877534986797       -1.27544544341326
H            7.60274767221568       -1.26216810266519        0.36756984003876
H            7.87709143104222       -0.03811022552368       -0.88728457687332
H            4.61359361695786       -1.73698885736040       -0.67453128239275
H            2.52898045843486       -0.64964022351881        0.02125400880288
H           -0.00402491572933       -2.53818667374337        1.70169665033571
