47
 energy: -79.522553303874 gnorm: 0.000186396445 xtb: 6.5.1 (579679a)
C            3.57204396282994        0.51694872520657       -1.94905175063241
C            4.19178973611074       -0.17811047600331       -0.72977192768658
C            5.23891943454200        0.69529345894316       -0.08662198365944
C            5.45446031351605        0.64043582906998        1.22513487111370
F            6.42271241146713        1.37276201456452        1.79124377132382
C            4.69211966997132       -0.19616703556235        2.12356188551664
C            3.61147437505946       -0.83820695649079        1.67497469748720
C            3.11012371839067       -0.65781269164927        0.26052756788259
C            2.35446493958362       -1.90819557268152       -0.24992525726906
N            0.97406110547868       -1.45865104588278       -0.23597599904456
C            0.88237991276863       -0.19589309966254        0.08353408735818
O            2.03643145621085        0.35826210918320        0.34501372387299
C           -0.36532919578143        0.51396858921189        0.14618121554641
N           -1.45617004514948       -0.26278109761982       -0.13153286581192
C           -2.65379642013727        0.24086909688194       -0.09528622519688
C           -3.78141307180570       -0.74607958989463       -0.36159625943131
C           -4.30329829334872       -1.25499857493971        0.99143947838485
C           -3.23055229497777       -1.93239182051472       -1.17015101984927
N           -4.86527305387558       -0.11434517595318       -1.10139583663394
N           -2.87025663079847        1.55313075870802        0.22364423903744
C           -4.21603400324070        2.13812056490104        0.29386083043774
C           -1.83265838100277        2.44923596075685        0.46988957260297
O           -2.04056462395148        3.62738997985701        0.69823027229572
C           -0.49368954398351        1.84915455445815        0.44646921534625
O            0.50944359276218        2.67526938174748        0.72172727519915
H            2.81595391012676       -0.12092089759328       -2.40338692550995
H            3.10880125860182        1.45784247613503       -1.65735243719822
H            4.34899180637870        0.71743569894970       -2.68538000323916
H            4.70448468086401       -1.08549820232859       -1.08379109246182
H            5.84252707262989        1.31071068982671       -0.74046392142453
H            5.02495611765316       -0.28069413307070        3.15075030837794
H            2.99476518989596       -1.44652904952158        2.32399921059164
H            2.63442174765187       -2.19426478589722       -1.26675701881668
H            2.47339756515587       -2.76925155312835        0.41026091430958
H            0.18298857931647       -2.03452009440544       -0.47959016884704
H           -3.48435053007993       -1.69533080407027        1.55821166596607
H           -4.74096348204494       -0.44700235278505        1.57544171397074
H           -5.06377469942712       -2.01562745355118        0.82162328738545
H           -2.77650711974703       -1.57766500552383       -2.09354056594825
H           -2.47874385362905       -2.47002639626579       -0.59589088010646
H           -4.04626154147767       -2.61130895380579       -1.41279712412983
H           -4.57379439887404        0.02205905847373       -2.06055999870642
H           -5.65830888896216       -0.74181234978527       -1.11095614535229
H           -4.56110366420766        2.37376559912549       -0.71137029367088
H           -4.16215300664733        3.04900761182444        0.88963622148427
H           -4.90184713030414        1.43621972731661        0.75505130101730
H            1.37513231647828        2.23620428345364        0.72215937412580
