42
 energy: -83.615871435233 gnorm: 0.000741100010 xtb: 6.5.1 (579679a)
C            6.81454264855473        1.36829728462220        0.95742331593654
O            5.60883730253954        1.34591792652028        0.19357546599426
C            4.65297171833181        0.48958115332184        0.63353001756148
O            4.84197268926551       -0.20541485271093        1.61229608041421
C            3.41287024913704        0.50451624164926       -0.16578713012453
N            2.43745102632290       -0.30778135843431        0.34409235976636
C            1.28213042593438       -0.34634271911170       -0.28671536566087
C            0.19379385514827       -1.26823083446169        0.26740544284742
C            0.61529904044285       -1.82181553136387        1.63388032954642
C            0.01982907351435       -2.41680451865748       -0.75058109507910
N           -1.01459505001009       -0.45541925778116        0.39813238450146
C           -2.27726411477022       -1.10549739881642        0.63213808426571
O           -2.32212630533275       -2.24911911031906        1.18353264122206
C           -3.37383608106118       -0.28388152915079        0.45969856884490
O           -3.32496155525866        0.89547668603023       -0.35852531082250
C           -4.54182246313713        0.98538644064545       -0.89696560973199
C           -4.82644405847708        2.11097357045117       -1.83414897633970
N           -5.40186781786843        0.09665830902431       -0.56878177949960
N           -4.74650283315309       -0.79993424036160        0.35680464587293
C           -5.46906749050235       -0.69660632965777        1.63536805581008
N            0.96022913545294        0.32529939331152       -1.39032070122508
C            1.87028005282241        1.14405132219612       -1.97732304913093
O            1.61769556373223        1.78255321327991       -3.01631449172096
C            3.18205197165759        1.23401250170684       -1.31032578461197
O            4.07918829610883        2.06049073931318       -1.91199434321768
H            7.29471952638497        0.38654838463737        0.93611590366519
H            6.60091936462181        1.64075160140942        1.99444823215632
H            7.46504891470226        2.11200800952065        0.50344752977957
H            0.72160977015846       -1.00352040569338        2.34731056331335
H            1.57450278816110       -2.33287994985492        1.54687486045308
H           -0.12654010990703       -2.52526256464533        2.01016457309385
H           -0.73835796497885       -3.12297637820615       -0.41333605001860
H           -0.27400766330293       -2.00912472902441       -1.71873043725711
H            0.96499224909165       -2.94786836455153       -0.86787069632156
H           -1.07894296779552        0.20384362512691       -0.37783831738086
H           -5.88236564334950        2.11097297733796       -2.09422279605982
H           -4.56905559939426        3.05971227674122       -1.36440051365745
H           -4.23341708500809        2.01043643319708       -2.74397343694091
H           -4.98922784167789       -1.37304498081949        2.34188797643035
H           -5.44707784246215        0.32433871404037        2.03133893160012
H           -6.50277861504799       -1.00317480185504        1.47901628126149
H            4.92932444041301        2.08287605139616       -1.45032635953326
