42
 energy: -82.968907067548 gnorm: 0.000820274664 xtb: 6.5.1 (579679a)
C           -5.42365373378625        0.88697529442578        1.46594793900751
O           -5.15839161552723       -0.01892442718174        0.38799538231604
C           -3.99218222394608       -0.38392256013864       -0.04510558573874
O           -3.99008871606967       -0.98997408454954       -1.19208436551790
C           -5.21836312839678       -1.18415974122675       -1.90609732897529
C           -2.70379917598117       -0.18820306792527        0.56873617609099
N           -1.65931010441761       -0.24736440802303       -0.32466981449290
C           -0.43740720035316       -0.11128288400790        0.14066414278583
C            0.65954381271743       -0.15648043031589       -0.91338934222299
C            0.60984275112236       -1.51422159298330       -1.62819205172362
C            0.43838347444416        0.99038241975312       -1.91008023782923
N            1.93927891774026        0.00848063170838       -0.23294261491879
C            3.12899213679490        0.03215223209720       -0.84866994480714
O            3.31678739530624       -0.09571910933766       -2.04960265328940
C            4.23586868599977        0.23799377463052        0.12767671342375
N            4.11883018597050        0.35029591718391        1.41589404016662
N            5.37788484243123        0.52526081098585        1.91194065270508
C            6.18112593915785        0.50860122989891        0.89318421060044
C            7.65306760623051        0.66090139318572        0.90009052312785
O            5.52184329838030        0.33020476470383       -0.26153329977021
N           -0.06713223189163        0.05728762740335        1.41009499219281
C           -1.01938374505987        0.08805220379605        2.36119664934116
O           -0.82592866603792        0.21044758922107        3.57861912729035
C           -2.42071992437185       -0.04368355623543        1.91121593453216
O           -3.30397623707057       -0.08636459043147        2.90786571208319
H           -4.61518270163105        1.60902510476143        1.57184186834389
H           -6.35316287518994        1.39031536704298        1.20349981247227
H           -5.55543846247557        0.32243905969866        2.38887791985298
H           -5.87946378295034       -1.83410261964100       -1.33148329356906
H           -5.70421288491869       -0.22257684658856       -2.07498154166247
H           -4.94683227186468       -1.65056698275561       -2.85053025936786
H           -0.38669408326982       -1.65737994210354       -2.04284880303636
H            0.81726831782553       -2.31623544520229       -0.92090930726598
H            1.34163353116434       -1.54804784471322       -2.43360763283319
H            0.52961515453493        1.94913746568645       -1.40122229010411
H            1.16828993704836        0.94168347896602       -2.71649205829313
H           -0.56370264466704        0.90563602669030       -2.32761541681155
H            1.89018241809573        0.13046157975155        0.77576655164330
H            8.00409664819455        0.78111045069917        1.92192714589147
H            7.94000237405561        1.53127097293201        0.31088878572037
H            8.12077425271879       -0.21625655340375        0.45449374444683
H           -2.76828227005131        0.01735129154603        3.73520881819451
