33
 energy: -57.848117328358 gnorm: 0.000592026242 xtb: 6.5.1 (579679a)
C           -2.71048623778363        3.32209035657333       -0.94389952226174
O           -1.73123952018964        2.31368478506358       -0.62963518962862
C           -2.10479763252907        1.10843748953452       -0.41046389822305
O           -3.36631737611892        0.84281807587725       -0.48257655761082
C           -1.08934833375551        0.12670193398845       -0.10092227409678
N            0.18771279592133        0.61979794940370       -0.05480210461081
C            1.16971152695679       -0.18352727033194        0.20404150801057
C            2.57295317911178        0.40135759528559        0.24392071081498
C            3.58051323404884       -0.51053344047299        0.94276900594634
C            3.00145482800962        0.68407989048791       -1.20422056464049
N            2.51348108462099        1.66707115190356        0.96442544967229
N            0.95782300155335       -1.51228078642954        0.41913778243840
C           -0.26988319721648       -2.13508284381618        0.41408159168881
O           -0.36578129705722       -3.32834946201886        0.62624232175185
C           -1.37888070147299       -1.21039022926004        0.12817036221792
O           -2.64408509830038       -1.61252378333186        0.07447206843545
C           -3.04302188176496       -2.97886732177354        0.30786870713091
H           -2.15519685561539        4.24839949300289       -1.07122129519461
H           -3.42402594574861        3.40106073401899       -0.12321633907302
H           -3.23016357853772        3.04625805238455       -1.86219709794233
H            3.75183169778116       -1.41761685362356        0.36545456844464
H            3.22726788850463       -0.77783188453786        1.93746165239726
H            4.52655529179098        0.02091656337368        1.04126557021337
H            2.26644878099247        1.32607427780388       -1.68804731396226
H            3.96784709677877        1.18660409899963       -1.20087672041303
H            3.08081013807107       -0.24702155189431       -1.76299015193822
H            1.78666248918930        2.24115866481027        0.55231826405969
H            2.25016810257792        1.48641906301851        1.92396148816674
H            1.73794794266984       -2.12834576477163        0.60721066529702
H           -3.59463687467383       -0.09605055139178       -0.30106879778541
H           -2.59451341875563       -3.63419850715741       -0.43972630802429
H           -2.74953100782811       -3.29064108867466        1.31065155518952
H           -4.12728412123039       -2.97967083604403        0.21241186352782
