20
 energy: -37.645628069633 gnorm: 0.000489969093 xtb: 6.5.1 (579679a)
C            3.52679412415306       -0.91260301037846       -0.51936559346168
O            2.08499674993382       -0.90196476264680       -0.47557409981798
C            1.50464481385052        0.19770427897696       -0.08924224092581
O            2.02378898202476        1.22815549757211        0.24596034366908
C            0.00435882976884        0.07450279228355       -0.09242724596448
O           -0.68677848186631       -0.99926128168362       -0.43184548499965
C           -1.97855542516010       -0.66862423377225       -0.29166471263064
C           -3.04739697219847       -1.63564075873735       -0.58689130995466
N           -2.10137525129988        0.56508348321553        0.12011961100840
N           -0.84802911163976        1.01840290630887        0.23983473249874
C           -0.59226381894888        2.37350679902590        0.68014784343985
H            3.92237072746647       -0.64155998702547        0.46016934852602
H            3.86999385343412       -0.19866234453680       -1.26916618687567
H            3.80997158859610       -1.92697426042059       -0.78919809666545
H           -4.01816957545586       -1.18028382351803       -0.40691983705976
H           -2.92717378994383       -2.51858819610525        0.04216403746875
H           -2.97358991809797       -1.95728626664105       -1.62653463562820
H           -1.54898287237384        2.86263063741803        0.83895312150119
H           -0.01167713165335        2.88439860297074       -0.08620166004803
H           -0.01292732058937        2.33706392769325        1.60133606591985
