43
 energy: -83.163731297984 gnorm: 0.000648060899 xtb: 6.5.1 (579679a)
C           -0.56507030930997        1.93400313500875       -0.82301938280427
O           -1.99877448989597        1.87518482880315       -0.89458084536929
C           -2.75212030036590        0.94654702599978       -0.41935142845955
O           -4.02074725013119        1.14436195972499       -0.49865404653054
C           -4.53189381830637        2.35876502032116       -1.07785721836949
C           -2.30996465883347       -0.28833066531923        0.20036304775382
N           -0.98488231156010       -0.63539294972799        0.04861609036142
C           -0.53084779451104       -1.71004409654135        0.59994189114624
C            0.90294518510467       -2.16946008962353        0.41078023919542
C            1.57115370522499       -2.46168155276035        1.76315905105030
C            0.89806212099172       -3.41951065322337       -0.47869682238306
N            1.66527036251333       -1.14405842032143       -0.28996967723848
C            1.88800608577689        0.08778073584927        0.21430497839140
O            1.40808246198825        0.52259953600289        1.24768188646009
C            2.77016417214635        0.87455862015866       -0.68035154152460
N            3.39955772687686        0.42838507840209       -1.72528550987314
N            4.08477597241266        1.48067251200318       -2.24971205945475
C            3.82650763250743        2.50591265262468       -1.49433560790021
C            4.32416662887701        3.89016641393929       -1.64968950831319
O            3.00011873233524        2.18624628706117       -0.48626765306924
N           -1.32615884969024       -2.53707616145739        1.34658088376415
C           -2.65914943157009       -2.31486268099015        1.56051403408268
O           -3.37260200233936       -3.04687213087936        2.21756222640435
C           -3.16988160547966       -1.09508817144876        0.91722063836397
O           -4.44999090012895       -0.84427241987432        1.10299795664575
H           -0.13153878942450        1.14494657912120       -1.43670290855080
H           -0.29597292375365        2.91520756165094       -1.21089614200578
H           -0.23864498397694        1.82283239838945        0.21135641956767
H           -4.17351153342975        3.21328988711206       -0.50320888820358
H           -4.19368719645781        2.43901244135102       -2.11120242248545
H           -5.61511153531790        2.27818785966567       -1.02621646175586
H            2.62815580353695       -2.66460446161901        1.59963471079308
H            1.46820378441678       -1.60581546100772        2.42838667166785
H            1.11743468446370       -3.33359652737884        2.22877821769589
H            0.44855658073654       -3.19070422997201       -1.44358555762022
H            1.91957512862636       -3.76336876317720       -0.63062476977858
H            0.32740180043104       -4.21468952798555       -0.00366722251979
H            2.13857102667077       -1.40768209085782       -1.14083278314582
H            3.50195605863025        4.55019292890958       -1.92605823501817
H            4.73896670045400        4.24471387325191       -0.70713276848455
H            5.08632055651167        3.92032357693167       -2.42441832235768
H           -0.94565411585098       -3.37418963805218        1.76516374903640
H           -4.84774811090459       -1.54259022007112        1.66263509085014
