47
 energy: -80.191955066963 gnorm: 0.000209462986 xtb: 6.5.1 (579679a)
C            5.88335619335643        1.64147844467467       -0.77630458914838
C            5.06956789839547        0.32075163840553       -0.92330038169742
C            5.94477074816729       -0.87046136550068       -0.60365595856424
C            5.79102178699602       -1.53288192456769        0.56665609244252
F            6.67457173311681       -2.54160420144038        0.84651294180260
C            4.76197663183037       -1.32251691827391        1.49521899175094
C            3.76820160834255       -0.39868576814127        1.11764603095060
C            3.84498229517069        0.34993837374380       -0.02354147922708
C            2.71333502439755        1.25809603645024       -0.43497791281275
N            1.45677927272016        0.50287930637870       -0.54531435964813
C            0.32417210424599        0.90687745511848        0.06076242346101
O            0.23277890777787        1.98843677672117        0.64876589458329
C           -0.84755951220770       -0.01036675635366       -0.06053607485419
N           -2.05283091167931        0.58997599182491        0.19741660968628
C           -3.17601952837363       -0.04525446808044        0.11470998228120
C           -4.43610414808298        0.78135195528216        0.35417430072301
C           -4.03999818437188        2.16234839037724        0.90278288527163
C           -5.18757051213077        0.96514007930103       -0.97201306397655
N           -5.31553483646605        0.10991486327288        1.31199102737055
N           -3.22872738447655       -1.37817812516407       -0.22607166590397
C           -4.45619841569399       -2.15997558051608       -0.35915694543773
C           -2.06281894261402       -2.08399893377229       -0.51193067052396
O           -2.09283733563016       -3.27917528986819       -0.83594005615477
C           -0.83946275398220       -1.34158001250026       -0.40920672026405
O            0.29257194926529       -2.04914745606202       -0.67777514012283
H            6.21914828651110        1.76164623332046        0.25422436955849
H            6.75687127933223        1.61629531097776       -1.42851487532458
H            5.26860829127565        2.50025688252815       -1.04804071552428
H            4.75701257111397        0.27343548857232       -1.98302779637945
H            6.72827552027712       -1.13244244159169       -1.30368434742773
H            4.69343185719447       -1.90621732297169        2.40209164758901
H            2.88668032926264       -0.30355848973113        1.75066891828954
H            2.92521859778276        1.72396017869756       -1.40625367715015
H            2.53977231327182        2.06464927436036        0.29004769043680
H            1.50582754388287       -0.39519374886964       -0.99821336000943
H           -3.47479720930112        2.05250374173727        1.82758748676868
H           -4.93967605813379        2.74029247471234        1.10580300339324
H           -3.42724436760263        2.69901103740555        0.17886953738093
H           -6.02918615432083        1.64064063276303       -0.82523904136570
H           -4.52240344009599        1.39178180441032       -1.72248967968296
H           -5.57067014561970        0.01625386900320       -1.34102793812231
H           -6.19712326711193        0.60032207387677        1.34860348841199
H           -4.90706078872798        0.14348789441148        2.23684854788748
H           -5.24610771752331       -1.72718325652309        0.24777186335775
H           -4.25193571562315       -3.17716559708514       -0.02200685725056
H           -4.76042116059555       -2.19105868693015       -1.40649054121108
H            0.02335474667007       -2.95507686438147       -0.91476188560917
