42
 energy: -82.971680780450 gnorm: 0.000519782622 xtb: 6.5.1 (579679a)
C           -5.92096789633473       -2.77569947932511       -0.08022154757933
O           -4.92397926929497       -1.77707546261843       -0.32744541069309
C           -3.97415729883449       -1.64693084881573        0.58747880473987
O           -3.90882738867977       -2.31901207750211        1.58914234683198
C           -2.96970277047185       -0.57492409000425        0.27160753723384
C           -3.16265869145195        0.46161599822089       -0.70783128107158
O           -4.25957975983325        0.46105023992898       -1.50079667535068
C           -1.74819420844777        0.92685441005910       -1.33052612439625
C           -1.70008591793380        1.31088949762781       -2.78157655619922
O           -2.56841973629309        1.68840508829919       -0.48311464975602
N           -0.62349990532846        0.41000025434868       -0.77037558823550
C           -0.70025575966375       -0.14417206762989        0.41321750068395
C            0.56335396258580       -0.45041473888526        1.18909311404832
C            0.41664979760398        0.11591737653779        2.60820493612841
C            0.78028159235856       -1.97077804702860        1.22295477426312
N            1.67122232355760        0.19904212191384        0.49558511343139
C            2.94849837831242        0.15946325331012        0.91399779289840
O            3.35153952041221       -0.40492763445223        1.91751446764988
C            3.83366953758959        0.91375714419060       -0.01397553758187
N            3.45855889368713        1.54703466960311       -1.08464535695476
N            4.57997696596404        2.09879437905650       -1.62834470151397
C            5.56791080507323        1.76678377016686       -0.85383946477547
C            6.99579178281964        2.12023761162723       -1.01255716274849
O            5.16074259989269        1.01917683538531        0.18279464816436
N           -1.82422076675781       -0.69458657801457        0.89896808390501
H           -5.46191348289657       -3.76711729420899       -0.07786960024594
H           -6.40024157004761       -2.59407114503792        0.88438414707260
H           -6.64601927848071       -2.69461168992413       -0.88715650851313
H           -4.60516923869564        1.35316401467022       -1.62562274654160
H           -2.69180151952758        1.25003924640597       -3.22430604332383
H           -1.33984376984611        2.33448490061709       -2.87794560771629
H           -1.02472990011375        0.64014999958167       -3.30807895492736
H            1.27725354641710       -0.15878182289312        3.21516136489333
H            0.33832421377227        1.20143976575467        2.56885861515950
H           -0.48607963311705       -0.29058629670429        3.06220183241294
H            1.65388980818594       -2.21122044423855        1.82618616264298
H           -0.09835547773517       -2.44674173645047        1.65573883247032
H            0.92801707061453       -2.34657196999675        0.21177135941717
H            1.45017101623494        0.67288219161077       -0.37172188757091
H            7.12287942001804        2.73261424662236       -1.90181419174113
H            7.59610260169716        1.21512572824134       -1.10381617878571
H            7.34387140300818        2.66930067994433       -0.13781165780838
