42
 energy: -83.001494908554 gnorm: 0.000940599990 xtb: 6.5.1 (579679a)
C           -4.72936629027541       -1.23503763084440       -1.35988130734610
O           -3.73434972283819       -0.69660342890029       -0.47280015262374
C           -4.08343187046259        0.35046319591799        0.24856270424105
O           -5.16435146073582        0.87200736686189        0.24156920663372
C           -2.91338155950376        0.83332667247533        1.15340491014106
C           -3.32057975224715        2.13410275742787        1.84656889130343
N           -1.78948973469970        1.07717730262737        0.27676034361383
C           -0.89138882315720        0.20141042749745        0.10388344305137
C            0.21957538111842        0.43731696083747       -0.89750110042941
C           -0.09068432913201       -0.40834931427392       -2.14149284192675
C            0.31933855369447        1.92411889303121       -1.24810085292009
N            1.46718588357654       -0.01062237012400       -0.27121034111468
C            2.65374642559262       -0.02714083626762       -0.92512633637005
O            2.81150955376719        0.16293628421186       -2.11570528136364
C            3.76386841985974       -0.32681565804755        0.01438929326094
N            3.66545344332189       -0.43997258789841        1.30513072262661
N            4.92083641891592       -0.68109683945454        1.77488541203391
C            5.70617271892453       -0.69824688197799        0.73995969311627
C            7.16707956116361       -0.93049784313164        0.71683375141985
O            5.03437244032554       -0.47920934523420       -0.39965589202772
N           -0.87111296175922       -1.03375112489774        0.73978395023127
C           -1.72974659401934       -1.39855866045356        1.73313388177938
O           -1.69744361788507       -2.48782745515970        2.25813546598085
C           -2.70521964744954       -0.29110498939811        2.15042262719345
O           -3.29034716228646       -0.34236387020239        3.20049311239551
H           -4.25232503204972       -2.05235207969871       -1.89504756317850
H           -5.06014368126397       -0.46255033747276       -2.05600387369212
H           -5.58113530530757       -1.59882996905987       -0.78216058073330
H           -2.49571462768347        2.49537657085107        2.45652573891340
H           -3.56780093831306        2.88199099755803        1.09631305029201
H           -4.18866740835018        1.95573275106093        2.47904687872752
H           -0.04406742750157       -1.46763959139282       -1.89578549760297
H           -1.09221775619621       -0.16810272341620       -2.49520494841407
H            0.62593579725845       -0.19505499479155       -2.93165308527927
H            1.10364295967986        2.07659924925652       -1.98708791944173
H           -0.63056894751043        2.26529693603180       -1.65575501056864
H            0.54914970300118        2.50226275225514       -0.35469163834367
H            1.49905829523311       -0.04822073682032        0.73721974200011
H            7.55834835974370       -0.90918937844714        1.73198539024386
H            7.38083951856452       -1.90208318624404        0.26940636419069
H            7.65612756099122       -0.16577141451633        0.11462236305798
H           -0.17870834410987       -1.71312286977602        0.46243228692722
