46
 energy: -86.367444750000 gnorm: 0.000350287621 xtb: 6.5.1 (579679a)
C           -5.08436308352100        2.22694125670676        2.15042951180567
O           -3.93481444105695        1.53868678779997        1.63080933602745
C           -3.97944622993274        1.17629972088084        0.37074317942203
O           -4.91590091256891        1.38791588608877       -0.37427286528911
C           -2.75424716205674        0.45522866244074       -0.09396298096860
N           -1.75093838172836        0.27383127702201        0.77462564757121
C           -0.66051501871767       -0.35392347927415        0.43192918118055
C            0.39314513761579       -0.49719736127202        1.51682871977666
C            0.37481100623450       -1.91916698113770        2.08889667846940
C            0.10890095474781        0.51580639335959        2.63582358015817
N            1.71567259971721       -0.21345801559611        0.96719179321313
C            1.90474805845799        0.86883406966780        0.17313096602596
O            0.99324768319921        1.56062634916943       -0.25111109895722
C            3.32237590162858        1.08594253630952       -0.17619322368021
N            3.84072235901241        2.04111735212280       -0.88357926882487
N            5.17809323464408        1.80152842447669       -0.94646284487557
C            5.39701070290213        0.71180670177531       -0.27619810030723
C            6.68591113955371        0.02256911424202       -0.05509347901237
O            4.26316101390338        0.21011394695303        0.23954025187484
N           -0.53927334525317       -0.89914533073028       -0.82130825254027
C            0.60062803582510       -1.70984997272087       -1.26170983100408
C           -1.49864391190489       -0.71921622510763       -1.75609924199149
O           -1.22834711708173       -1.27183610622247       -2.91646472498039
C           -2.11085051953302       -1.23312352859977       -4.05046140427318
C           -2.66869898209299       -0.00109688642564       -1.40409438713913
O           -3.62071634605671        0.18560931239850       -2.31093681193516
H           -5.24705033946342        3.14813017556000        1.58785926879484
H           -4.86576393606381        2.44455784616863        3.19328110142991
H           -5.96378423203375        1.58624489115864        2.06558322135467
H            1.09936069576722       -1.99057100602677        2.89812548491120
H           -0.61676143604716       -2.13828068354897        2.48190124867254
H            0.62284503828143       -2.65810351472228        1.33128874090216
H            0.91203969227252        0.46887224392442        3.36809819158603
H           -0.83523690834744        0.27823739225100        3.12166620345715
H            0.05450328991516        1.52258181729733        2.22404636249826
H            2.50743725867801       -0.68302289400012        1.37366242783795
H            6.61706039893216       -1.00638371305899       -0.40702588995506
H            6.91575052657711       -0.00289258197837        1.01017828679965
H            7.47780062485398        0.54212516574873       -0.58940498550175
H            1.31897019797063       -1.82176426752044       -0.46117553016561
H            0.22243053267853       -2.68338599236786       -1.56867699423334
H            1.06490216106262       -1.21706103414455       -2.11503470782893
H           -3.05681685804702       -1.71867932364204       -3.81003142681879
H           -1.59069462689900       -1.78597154578637       -4.83149813589793
H           -2.28178067891645       -0.20288552826431       -4.36452950960589
H           -4.38688477710782        0.67341064862102       -1.91031668798250
