42
 energy: -82.979608566047 gnorm: 0.000281167653 xtb: 6.5.1 (579679a)
C            6.93303112818515       -0.06925168382478        1.48619440378680
O            5.80266368505051        0.56697145910283        0.90505502976362
C            4.75542283052015       -0.24220897724287        0.61201181851240
O            4.80827500867232       -1.44335618886334        0.84807647952522
C            3.61485708143637        0.43309360253060        0.00808061611017
N            2.58104962120166       -0.43348911304711       -0.29269281411835
C            1.50946646435514       -0.01166539699569       -0.85232097612359
C            0.41628524047745       -1.00121645994317       -1.21669274827810
C            0.22154176131270       -1.07322672550673       -2.73533832323921
C            0.78193014509028       -2.38069319636019       -0.66691362991208
N           -0.85725712812944       -0.61970339205742       -0.55704850028160
C           -1.69092843630700        0.33788242287366       -0.96158983585873
O           -1.53728862326086        1.12911908085915       -1.87368252349382
C           -2.94734153085362        0.39883517877130       -0.13555726340763
N           -3.91814347673045        1.25186529800047       -0.26563149765378
N           -4.81712233816677        0.90004929218158        0.67171610255265
C           -6.06149176812492        1.62993443681704        0.79562490554010
C           -4.38574791343393       -0.14682994659298        1.34233653176630
C           -5.03877044774880       -0.88135524687808        2.43697336357542
O           -3.20662719636964       -0.48005511685640        0.85506502753676
N            1.33484126756148        1.31540098104553       -1.18245454988558
C            2.25923939671720        2.29181821923411       -0.91140473342538
O            2.01596898373032        3.46009022431340       -1.20343164611393
C            3.54561590213780        1.82512815730204       -0.26390428723605
O            4.42568960761351        2.66887568679295       -0.01836061054851
H            6.67447785891721       -0.50425504673427        2.45659834411141
H            7.69881160570154        0.69472093440416        1.61666232469342
H            7.30825745281408       -0.86318293645584        0.83288807108276
H            0.05551329923492       -0.08670217879285       -3.16240211542335
H            1.11559437750958       -1.50350059421811       -3.18519954856303
H           -0.63154323982240       -1.70734636916711       -2.96819782170549
H            0.00154001379786       -3.09882255662474       -0.90869568297146
H            1.72229907448158       -2.70964290588374       -1.10750361321233
H            0.90615777941873       -2.33376169326874        0.41401398990770
H           -1.15001131215941       -1.19977586618036        0.21055787136290
H           -5.94110879034038        2.58888946785747        0.29731689273048
H           -6.85540304425160        1.05440087737157        0.32133117888715
H           -6.28513802234911        1.76719186998981        1.85089781288961
H           -4.32556301193085       -1.56311860191515        2.89597961657442
H           -5.88018637128970       -1.45440849094453        2.04213344241053
H           -5.42816470523109       -0.18474349041490        3.17937226523366
H            0.46930877057541        1.61125698532769       -1.60986236711594
