42
 energy: -83.649903509937 gnorm: 0.000499683071 xtb: 6.5.1 (579679a)
C            7.08123841440259        0.03177759534050       -1.04416572902339
O            5.77608236687934        0.58058386177986       -1.11655033124251
C            4.78808639150114       -0.16983655972960       -0.55201251169428
O            5.06026176196987       -1.24070083575226       -0.01570814466838
C            3.45666864241148        0.39864830482934       -0.65172847595335
N            2.48576470419910       -0.40562895544146       -0.07048508381217
C            1.25410916051136       -0.04537126457412       -0.08856386820234
C            0.17537715285729       -0.89514436503329        0.58674067621064
C            0.34737589755739       -2.34750387216191        0.10515453530226
C            0.45363093373509       -0.82928159031255        2.09635976357977
N           -1.12173929676387       -0.35683528383297        0.16965326407266
C           -2.29677864842884       -0.27385046955080        1.15610668966966
C           -2.95731095000342       -1.69200915828721        1.23741030478028
O           -2.04099786444578        0.27839746789872        2.30237568121624
C           -3.28108395273862        0.62383671683995        0.31734890965732
N           -2.97369264330779        1.68994525102499       -0.35318253852032
N           -4.15964057944459        2.25001384362541       -0.79013873871945
C           -5.10113228925012        1.48771665834414       -0.34927956317476
C           -6.56283177954914        1.64517160690249       -0.54697258788683
O           -4.62298862273301        0.44507995926448        0.36009093859706
N            0.85454216474644        1.13678436195863       -0.66174752459757
C            1.69267010378268        2.02303697180089       -1.26686743745271
O            1.24576788924622        3.05801947274084       -1.77027727917449
C            3.15617987918435        1.64235554601969       -1.26521385689571
O            3.97595159298511        2.42414581909545       -1.79373436946467
H            7.75376221672362        0.73491374728558       -1.53434414815021
H            7.38994503377681       -0.10733587050876       -0.00286232752294
H            7.12600810971278       -0.93614493748410       -1.55416998027340
H           -0.33302554326733       -3.00990180067174        0.63674304849905
H            1.37234427176960       -2.67435704541582        0.28491630095964
H            0.14221739190857       -2.42089403524086       -0.96246805477968
H           -0.24840182726099       -1.44675538992218        2.65308475433784
H            1.46497498458222       -1.19974802022630        2.27433763531695
H            0.38573256802926        0.19516172414518        2.46163033231978
H           -1.44788604930507       -0.89244200805393       -0.62818314830630
H           -3.89116479540433       -1.60484855341682        1.79070826342093
H           -2.29524798258511       -2.36590737572655        1.77690795244516
H           -3.16302588067779       -2.09727013452648        0.24859933383667
H           -6.96736926288262        0.77637629160822       -1.06627289358683
H           -6.75814129376085        2.53886538050249       -1.13508681742932
H           -7.06816045507303        1.72759824934278        0.41527796129505
H           -0.14807191557942        1.32333669551014       -0.66398093498514
