42
 energy: -82.954648870446 gnorm: 0.000834011138 xtb: 6.5.1 (579679a)
C            6.50299057667465        2.09446785263352       -2.08639336656459
C            5.42012243540677        1.62221397651155       -1.19585980872148
N            5.08321692443506        2.09780505584039       -0.03475069098348
N            4.03132403894802        1.34955044764670        0.40032701874860
C            3.79424380092611        0.46509999724513       -0.52157708909912
C            2.72813504752026       -0.56840664978337       -0.49299169661252
O            2.54578493850381       -1.36178627091357       -1.40300050745662
N            2.01579453262071       -0.48951574008212        0.64583170454899
C            0.89516036791865       -1.36253380068722        1.02919927318565
C            0.58228650958643       -1.05532452396990        2.49520323809862
C            1.28584381827847       -2.83727380374050        0.88074197365123
C           -0.32043322311378       -1.02237141072561        0.17704159964535
N           -1.33206004960546       -0.46614088191098        0.72771786700422
C           -2.45806614145928       -0.14119254862726       -0.02943084793961
C           -3.45983360626147        0.40895621442789        0.76999900604244
O           -3.58201981552556        0.66458268479468        1.92921991076280
O           -4.78644665260965        0.72676076515819       -0.07857933391151
C           -5.96328437591197        0.50333325071664        0.72269093176357
C           -4.73612209112068        2.04491876594480       -0.66694005861990
C           -2.51656936026417       -0.37222664353321       -1.44296895085068
O           -3.44083979447166       -0.04146662638874       -2.18720994763550
C           -1.30372339726326       -1.06886195985327       -2.03746453215835
O           -1.21407962777167       -1.36926902117968       -3.21552495321200
N           -0.29100127016413       -1.34099160630293       -1.16016082755615
O            4.64262880600089        0.59136042816764       -1.55754039376568
H            7.13364667970927        1.25701919735587       -2.38283129903613
H            7.10085052554505        2.84216026734005       -1.57089265617746
H            6.07656509152252        2.53271196605172       -2.98941147177306
H            2.27807589790367        0.22664849842695        1.30713545815130
H            1.45363465332971       -1.26557242452794        3.11243960306966
H            0.30198586651446       -0.00934392704592        2.61102318673540
H           -0.24852194028862       -1.67480335395288        2.82905488354865
H            0.45518348029652       -3.46086192949120        1.20776387142946
H            2.15349574352062       -3.04681290174721        1.50405186225221
H            1.52788446551849       -3.08683671614627       -0.14960962699680
H           -5.93686224845744       -0.53574292217810        1.04485060373163
H           -5.96588150606268        1.17442147851096        1.58326928041718
H           -6.82831823048651        0.68655247826065        0.08937378728350
H           -3.81176462786484        2.10710491453846       -1.23786155165248
H           -4.76812033383662        2.80554013830717        0.11530008466714
H           -5.59398973222314        2.13621008901232       -1.33166723163775
H            0.54908382408834       -1.76008280410063       -1.54649130237899
