42
 energy: -82.975787243378 gnorm: 0.000502349644 xtb: 6.5.1 (579679a)
C            6.32694362456430        1.54879793875218        0.83636310650657
O            5.18472311752298        0.75663862775109        1.13932692202074
C            4.20626750202091        0.74827024536915        0.20666581936888
O            4.31741063442236        1.39028303622520       -0.82926251345181
C            3.04555195093704       -0.06813533983013        0.54956113152147
N            2.07355913316170       -0.04727146505880       -0.42864176836480
C            0.99319824894805       -0.71745955838865       -0.28860562921773
C           -0.04370832162819       -0.73967490921065       -1.38854201922562
C            0.22680120871446        0.37093841463106       -2.40457160929388
C           -0.07605334797020       -2.11228763686966       -2.06500230325907
N           -1.38178047912619       -0.52977210952573       -0.79038317600335
C           -1.70577632015675        0.44631573105864        0.02322593212263
O           -0.79707712683400        1.32440056094868        0.34073759899617
C           -1.06850572700046        2.42988138759430        1.21448459231624
C           -3.05422231578500        0.47520140130820        0.52993490621764
N           -3.62285967093023        1.31288332893311        1.35528941999163
N           -4.89447655167434        0.89952115037974        1.51889230048257
C           -5.04700018284108       -0.17027009252158        0.78777757711769
C           -6.25874004071668       -0.99600926396248        0.63075429600504
O           -3.91839664266332       -0.48693446872719        0.14036258178353
N            0.73305571104191       -1.47592716219110        0.83465115028873
C            1.60064353382775       -1.57208145009256        1.89787182501733
O            1.29282058952914       -2.24609424084331        2.87350686583344
C            2.90096146444142       -0.80748083904131        1.75566989545116
O            3.72679263167859       -0.87184005561089        2.67973355084578
H            6.81388823583962        1.19055896851908       -0.07585229997285
H            6.04291340370593        2.59628507094392        0.69672982908493
H            7.00964939254965        1.45944291162196        1.68056372477045
H            0.24613338473899        1.34038201790290       -1.91049786940156
H           -0.54556537928699        0.37080351531040       -3.16990178958297
H            1.19781260310507        0.19431921199351       -2.86566021488289
H           -0.83239358967280       -2.12909410094117       -2.84703722904465
H            0.89662971532466       -2.31910746389952       -2.50924254481838
H           -0.30292438115231       -2.88739135121934       -1.33524059679078
H           -2.11229337947696       -1.18059873813634       -1.03672126778626
H           -1.86660442163443        3.04527085391515        0.79763493486142
H           -0.13982092242332        2.99542495928664        1.27288381025850
H           -1.36407876587108        2.06705768598788        2.20024409696510
H           -6.05773953256060       -2.01243802274987        0.97105100167659
H           -6.53612576479959       -1.04676662651954       -0.42224336753609
H           -7.07495117073910       -0.56861058483496        1.20847579619799
H           -0.13466305113466       -1.97742853826703        0.90394253291968
