21
 energy: -30.769985454126 gnorm: 0.000415821433 xtb: 6.5.1 (579679a)
C           -2.54742493192879       -1.14416775022695       -0.22707724329425
C           -1.36694917713024       -0.41916523597962        0.47140257939383
C           -0.04266348874217       -0.79655826300464       -0.05141899173932
C            0.91952673345937        0.12565324039526       -0.36921318708456
C            2.29942528358403       -0.30772906930612       -0.82377639611605
N            3.16816286810964       -0.45459660385103        0.33460058709453
C            0.62917494736094        1.49923297338003       -0.21102675510579
C           -0.59386045891913        1.95328376906724        0.27478784498772
C           -1.56089639904954        1.03007319484840        0.58002867680207
F           -2.73156090220609        1.42661472403919        1.00222199658609
H           -2.40688564889830       -2.21938704194975       -0.14748428013144
H           -3.48008789129636       -0.86019187833356        0.25555931350967
H           -2.57500238794066       -0.85654177386515       -1.27569295790325
H           -1.38718330001884       -0.80065152500421        1.51041343653789
H            0.14346865779842       -1.85763031315748       -0.17204087507754
H            2.72545771190186        0.44152546652976       -1.49491713705871
H            2.23885943916274       -1.26643990679110       -1.34293211490083
H            2.78149374853213       -1.15421026798606        0.95295684001870
H            3.20065711236281        0.41932604378197        0.84115015514098
H            1.38164464471195        2.22927706977824       -0.48940879480673
H           -0.79535656085376        3.01228514763508        0.38186430314698
