42
 energy: -83.652440488021 gnorm: 0.000794093003 xtb: 6.5.1 (579679a)
C            4.74117624208202        2.96446522424288        1.35275165562875
O            3.90229296930482        1.93265047077075        0.86130453655158
C            4.38394785985083        0.65542196722752        1.01928714483858
O            5.47025208634213        0.47796028012843        1.55446526611465
C            3.48155515780027       -0.35135433037951        0.49756382537899
N            2.30819876559994        0.13411941590274       -0.05781050607675
C            1.43299467227990       -0.67143922227664       -0.53606846383266
C            0.15445021557883       -0.17120435717758       -1.18974382726250
C            0.37861970467590       -0.20816210036808       -2.71344906136519
C           -0.10397538461630        1.27121090705917       -0.72253155999494
N           -0.89905411667914       -1.12495756331315       -0.82168998067122
C           -2.34379798425872       -0.68953719688798       -1.11598321709459
C           -3.12455215731983       -2.04909648022999       -1.23798096844235
O           -2.51026931565009        0.11417688094209       -2.11910310178540
C           -2.83886859680021       -0.09631352303888        0.25802801583065
N           -2.16983008712941        0.04116273602151        1.36093605838486
N           -3.02739614365236        0.59590673322388        2.29141177034461
C           -4.15675314834196        0.75285402396755        1.68761540968567
C           -5.40711870666685        1.31932905992111        2.24965580724419
O           -4.11215079955006        0.33641551863884        0.40732004689330
N            1.62677893947221       -2.03823094006773       -0.52616228763430
C            2.73366168095829       -2.65393759393206       -0.01765336588760
O            2.82454971139676       -3.88343423868848       -0.04627775902897
C            3.78854816586930       -1.73615867767996        0.55815642906881
O            4.82514133208565       -2.23940841818757        1.03713605549049
H            4.89445317266425        2.86324653366616        2.43263181978766
H            4.24515505704312        3.91127422417749        1.14150142468220
H            5.71791272832586        2.94389406834458        0.85776753915884
H           -0.50213654759273        0.16186647289298       -3.23642374322484
H            1.23637553156200        0.41047720400916       -2.97953475592778
H            0.56995125329751       -1.23301539656773       -3.03175731402688
H           -0.25257254334262        1.29551221516310        0.35732080827295
H            0.76041831215617        1.88882760052807       -0.96907843500885
H           -0.98442221336496        1.68139008855153       -1.21491939833309
H           -0.84475628603209       -1.29010367888252        0.18425174825100
H           -4.18651881264162       -1.83274325235695       -1.33807498211465
H           -2.96094185828441       -2.68224780270069       -0.36802129964662
H           -2.77811394749777       -2.56199626394323       -2.13316918004718
H           -5.27769360626267        1.49933444626842        3.31415556297853
H           -6.23616638445512        0.62951406883856        2.09658505346890
H           -5.65360133704516        2.25911728525072        1.75489634543180
H            0.89425641884318       -2.62678538905619       -0.89931111606742
