47
 energy: -80.191649665053 gnorm: 0.000236713429 xtb: 6.5.1 (579679a)
C           -3.92406629224074        1.05026673936538        2.08794605748126
N           -2.74406503808807        0.87109360938849        1.24845488282653
C           -2.64010741190851       -0.06831280700255        0.24913809234468
C           -3.77073646331551       -1.03692636507647       -0.13377417297363
C           -4.83671647048833       -0.29485413905648       -0.95554498793368
C           -4.40153226810965       -1.77676807527185        1.05310187450249
N           -3.20682871179245       -2.06624526412449       -1.00348579796922
N           -1.57170651531247       -0.16845918632553       -0.47461531118077
C           -0.47958440073719        0.63021766588773       -0.30010774843788
C            0.70931111639324        0.40157723083417       -1.32997039141492
C            0.83087504640925        1.77704378482450       -2.10162346824609
O            0.55057479763712       -0.61912356076257       -2.11234795261666
N            1.94364943476200        0.28279727562702       -0.40904697805224
C            3.10954123615460       -0.17606114004223       -1.17232132272612
C            4.22004328607152       -0.52930229448088       -0.21399231250539
C            4.34353135054322       -1.82476774571275        0.28697881204676
C            5.34191217517822       -2.14684758580193        1.19672649817191
C            6.20930545459458       -1.14735594839575        1.59715873860952
F            7.18207563629126       -1.45055501189097        2.48187693376603
C            6.12202123633861        0.14875292897696        1.12406190328528
C            5.11785467061867        0.44861479009159        0.21332356931199
C           -0.52461180644508        1.56787452469874        0.69157659037905
O            0.50190765637221        2.42975981522201        0.96797988103424
C           -1.68025021584047        1.72069797800849        1.53190641736684
O           -1.73863101541942        2.55788583010704        2.44436409731762
H           -3.85781972056579        2.03230615632076        2.55697756134936
H           -4.83060559248898        1.00623271990290        1.49204743545953
H           -3.95204973032893        0.29004011733733        2.86830799065936
H           -5.55921419794490       -1.01712864459658       -1.33419210116331
H           -4.37019592580897        0.21098359224245       -1.80079854504794
H           -5.36532202864412        0.44336627733228       -0.35681655794626
H           -3.64090119411970       -2.06291001417453        1.77861382792036
H           -4.88037492288273       -2.68201565921634        0.67907642832371
H           -5.16208895469785       -1.18155981552927        1.55112634035162
H           -2.55643509930161       -2.62692168010515       -0.46389019866847
H           -2.67301278653618       -1.61339271999026       -1.74509853785224
H            1.62975784651599        1.69360501785190       -2.83690140627998
H            1.03747077940978        2.61260844641785       -1.43660796101115
H           -0.10660118422049        1.95618217714599       -2.62726566749237
H            2.15270371842851        1.21248375528036       -0.04599871957346
H            2.81409255706689       -1.06219784519140       -1.74930192751895
H            3.46744098452434        0.59323125262338       -1.87570400462460
H            3.65673564084591       -2.59845669028939       -0.04063101982860
H            5.45001437431337       -3.15051070384857        1.58729776561884
H            6.82406266549743        0.90069503622200        1.45962626123290
H            5.03707441305538        1.45932715908239       -0.17110168700932
H            0.22150087021554        3.00302601609358        1.70116181871491
