42
 energy: -83.593930928603 gnorm: 0.000406501983 xtb: 6.5.1 (579679a)
C           -3.48363943081216        0.81428370632583        4.13150457877791
O           -3.48079642733055        0.74980404027920        2.72394030847587
C           -2.23934179363058        0.44145698005938        2.14731486786663
O           -1.26525214093443        0.26232170626179        2.91356085856306
C           -2.22636313847395        0.36280277498982        0.74104199572488
C           -3.39058998645275        0.55767725625351       -0.15156795157448
O           -4.55262094551817        0.86261026919876        0.26638414244236
C           -3.10875766705457        0.37298950482716       -1.50763719553176
O           -4.03713905430281        0.43978948207429       -2.54786999327542
C           -4.72419026187349        1.67535898358237       -2.69243723140536
N           -1.80883501723612        0.07502448121857       -1.96413907174705
C           -0.79404393623887       -0.10049490017928       -1.05884161878676
C            0.58066012428231       -0.44252361168065       -1.61922723070937
C            0.51785272424668       -1.76699411105966       -2.39861066617205
C            1.05427523777169        0.69787156375772       -2.54063316756700
N            1.47145548812786       -0.59090264946689       -0.47936287140479
C            2.83893830481036       -0.73528785613940       -0.59791704441853
O            3.40795328630060       -1.03582342250047       -1.66995143459771
C            3.50649098479353       -0.55260672447062        0.66070848452516
N            2.93359380628937       -0.23477025969919        1.82123455522401
N            3.94126038392485       -0.14577416630089        2.74117405994348
C            5.04809217458517       -0.40269503000896        2.12568761579453
C            6.41262591448029       -0.41967967175729        2.70860886590541
O            4.87346676864013       -0.67189968068350        0.80971304603395
N           -0.96880708432770        0.03869782508902        0.20441244081882
H           -3.20164197722141       -0.14734393601256        4.58164022768212
H           -4.49768450780314        1.06896595422076        4.44590399920392
H           -2.79123570075987        1.58157372705227        4.50338517521922
H           -4.02504137117657        2.50498368042114       -2.85888083314091
H           -5.33891892011883        1.89512856827877       -1.80982892181145
H           -5.37213194141247        1.57904637952442       -3.56597006144414
H           -1.68312528225770       -0.07401557222162       -2.94759903311212
H            1.50159114652416       -2.01688763403293       -2.79344364608592
H            0.18534599843552       -2.57093033015386       -1.74141670823736
H           -0.17836140215017       -1.68133417312407       -3.23080781695578
H            1.11886545973417        1.62974140512627       -1.97900497811310
H            2.03200593690550        0.46664974095580       -2.96037999908023
H            0.34882056226362        0.83003581036077       -3.35891411863748
H            1.12077583697858       -0.18198690646467        0.38792753714121
H            7.04239035055447        0.32660703190889        2.22384125005954
H            6.35560710777170       -0.20299130813911        3.77264646400449
H            6.87645138966707       -1.39534792767570        2.56381112039513
