46
 energy: -86.315686540079 gnorm: 0.000796128946 xtb: 6.5.1 (579679a)
C           -5.27802857525451        1.54529358494344        2.53355123605865
O           -4.28753237333297        1.29765908649229        1.50633248599219
C           -3.27276661236544        0.48660454553795        1.83814900979837
O           -3.14545500518153       -0.02494961544316        2.91172529601427
C           -2.31973416240258        0.29323864688286        0.68637464991371
N           -1.24545421372724       -0.46432061122993        0.96928124199662
C           -0.33220476137140       -0.70920517548852        0.06285281652636
C            0.80470849785050       -1.61293451633061        0.51824809871819
C            0.77624462183817       -1.75328392482556        2.04685111081494
C            0.62032912565140       -2.99126082348681       -0.13687290308713
N            2.07337330137175       -0.98801906408444        0.13438356431680
C            3.27563391505314       -1.59468491608970        0.32153783604180
O            3.43736134943121       -2.75517632097322        0.64632803943608
C            4.40875148619795       -0.67858280573165        0.05389016389136
N            5.67580568461317       -0.94295167010730        0.12168960146759
N            6.33509851707172        0.20675537016707       -0.18811307857250
C            5.43096510854353        1.10523120969787       -0.42620683422903
C            5.63584354386988        2.52037958253322       -0.80296950398750
O            4.18905289463583        0.60995710313216       -0.29092662757912
N           -0.43672702866983       -0.23180548022404       -1.19943153471018
C            0.50828007307499       -0.48780034937415       -2.29336330609238
C           -1.51384075583023        0.56794848270656       -1.61617388794694
O           -1.58852571466349        0.96696280803181       -2.76260314099360
C           -2.46693329408121        0.81675719385413       -0.56627879392866
O           -3.55518578825325        1.67385236598734       -0.89478332827295
C           -4.45492013396265        1.26345510072368       -1.98104423044975
H           -6.08230157107960        2.09309046306228        2.05081637036418
H           -4.82654638277788        2.13663032601277        3.33111696551797
H           -5.63423862809618        0.59150503345680        2.92463149676437
H            1.60992457916990       -2.37751312329402        2.36457475938813
H            0.86130610297003       -0.77374040133246        2.51320980500614
H           -0.15805944298034       -2.21476100778864        2.35984991940457
H            1.31410607591869       -3.70651811441500        0.30108260790564
H            0.79189958194629       -2.94462415756376       -1.20907523661420
H           -0.39801973219991       -3.33211664914190        0.04242376288938
H            2.07396229894713        0.01497390377811        0.04877896376880
H            5.21800028371110        2.70543005484829       -1.79222186478012
H            5.12136249113009        3.16989056798105       -0.09544901872783
H            6.69919705183926        2.74921121953366       -0.80808356001931
H           -0.00107454890614       -1.08959585877589       -3.04570091235907
H            0.78082506929571        0.47219960067576       -2.73017930006155
H            1.39171881721235       -0.99691906024160       -1.92960805938187
H           -4.07676413893994        1.82441750308701       -0.04469491695400
H           -3.87017752514139        1.27959191773906       -2.89780352849516
H           -5.24435887647731        2.00952272317449       -2.00308015159893
H           -4.84490420564862        0.27020825190058       -1.76767308315035
