20
 energy: -37.645399983007 gnorm: 0.000738876888 xtb: 6.5.1 (579679a)
C           -3.53186644766764       -0.92541760246133       -0.52109939520797
O           -2.09084974108895       -0.88424782989991       -0.50816122386283
C           -1.52376613059976        0.23982731447493       -0.17298771178288
O           -2.06015619878510        1.26792070223886        0.13679796217495
C           -0.02035315883090        0.12231442908326       -0.21690563016213
O            0.62214835923969       -0.98810101507267       -0.53781329652462
C            1.92797695237560       -0.69409810558677       -0.48140903389099
C            2.94863562216272       -1.71229375543146       -0.77489987090938
N            2.10875471784798        0.55309548384740       -0.14019568354363
N            0.87609023413596        1.05345389378718        0.02117094310612
C            0.71710236372715        2.43509138905178        0.42140939146558
H           -3.91184684358000       -0.67304550762069        0.46965192782329
H           -3.90735849346636       -0.21206137658122       -1.25582581016274
H           -3.79847919779464       -1.94340221151570       -0.79455686928102
H            3.91903614432962       -1.23831643021572       -0.90251165662987
H            2.99983083386853       -2.42413606340733        0.05157161720170
H            2.67149662785106       -2.26311399431639       -1.67316273396837
H            1.50502729897967        3.01509123681280       -0.05350881948731
H           -0.26800804232358        2.78036509073605        0.11808220289631
H            0.81658509961897        2.49107335207700        1.50531669074571
