42
 energy: -83.589549516464 gnorm: 0.000583784366 xtb: 6.5.1 (579679a)
C           -1.80691771832126       -3.26644689478221        2.20066268107330
O           -1.58209518753453       -2.12854664205123        1.38610922956907
C           -2.68168129128023       -1.36042584356789        1.12772357710954
O           -3.77764256461292       -1.68557682645210        1.60295838139518
C           -2.43186239469625       -0.20719978963641        0.29477820605318
C           -3.44122903301418        0.66217509710156       -0.03750806613213
O           -4.71286641827052        0.51636777548514        0.41839017277462
C           -3.23419053064912        1.80181452801433       -1.09005669836787
C           -3.85868959869262        3.11746735343846       -0.47293259723260
O           -3.75593047449004        1.46961567433444       -2.25482532971321
N           -1.75116378853976        2.09085052275282       -1.15447468260005
C           -0.91939639400356        1.18172619652806       -0.75560839643523
C            0.56470602375290        1.50541562006836       -1.03987389899618
C            0.77592722413581        1.64707201256320       -2.55314343294360
C            0.94383684743199        2.80746395773925       -0.32139398011010
N            1.35584344067479        0.39279860699021       -0.51955611416610
C            2.67980517217717        0.27430054468431       -0.57709473355305
O            3.46092262815226        1.08545041593564       -1.07548443162621
C            3.14123648410207       -0.99964458773804        0.04275150342175
N            2.38953079172385       -1.91666480412408        0.58041142544378
N            3.22453634821690       -2.90864780629606        1.01314868924179
C            4.42751215919840       -2.53591276974317        0.71283623469764
C            5.68795995946777       -3.27013235191138        0.96623145838533
O            4.44942536192308       -1.34097428208791        0.09868070530659
N           -1.11571284097240        0.02050503002877       -0.11649372699176
H           -2.20356790988323       -2.97472686388796        3.17863336634155
H           -0.84791295749650       -3.76756768702847        2.33067239584180
H           -2.51724764912466       -3.95235564767018        1.72678727338045
H           -4.77662765582238       -0.28108895582619        0.98655085793158
H           -3.68187554769119        3.94103021496930       -1.16462793917911
H           -4.93293998494133        2.98567992487052       -0.34485808583209
H           -3.40102483404382        3.35090235311085        0.48881270544388
H            0.05995203635988        2.37631797681020       -2.93559382866195
H            0.60432875056647        0.69039706052524       -3.04811860444897
H            1.78628268913469        1.98496387083490       -2.78180739990407
H            0.24340233979518        3.58750119639989       -0.62297063929502
H            1.95688674330423        3.11881938173793       -0.57476731722899
H            0.87632989385175        2.67327295030447        0.75844538486423
H            0.78214877565263       -0.32892065042432       -0.06390874449731
H            6.14519111361605       -3.56803027499353        0.02201452350716
H            5.48015490023677       -4.15713495430904        1.55949357023489
H            6.39465209062594       -2.63190963269491        1.49555330590285
