46
 energy: -86.997676454889 gnorm: 0.000722561274 xtb: 6.5.1 (579679a)
C           -3.83354263057672        3.77261883671055       -0.29167424096011
O           -3.78353084072996        2.41233953090647        0.09016485038375
C           -2.56674200941837        1.77064564650279       -0.17737485762089
O           -1.62941544758100        2.42840703459896       -0.68686127557063
C           -2.56522737178614        0.41578734213224        0.13788013124220
C           -3.56567171465405       -0.39482279679431        0.77283158636932
O           -4.91251775421843       -0.10358652757878        0.62662836385662
C           -3.22992324178263       -1.50111382722596        1.50869382398931
O           -4.02934022939524       -2.29668642873612        2.08842558914486
N           -1.77286695148553       -1.72589058042790        1.66509380364270
C           -1.45443286787471       -2.66545147425794        2.73208798639684
C           -0.88524872786659       -1.21229424283878        0.81875771658733
C            0.60812129814087       -1.59268379937167        0.82424294157473
C            1.23569802220101       -1.65232876418889        2.23159015780127
C            0.79934942118049       -2.93207639366139        0.09493871142985
N            1.30919574401741       -0.50808254133346        0.13030641122577
C            2.63600234393192       -0.58935354375833       -0.22834095146927
O            3.28108822079727       -1.63458711416605       -0.30868474540823
C            3.16336698541062        0.72979153503352       -0.55348265146264
N            2.50950405893980        1.86793299824717       -0.47993167595017
N            3.38369015898963        2.84559438408176       -0.85966751008197
C            4.50509949172891        2.26054443512069       -1.13753040578456
C            5.76571881030191        2.89218563077455       -1.59228132530663
O            4.44465281346987        0.92577096021172       -0.96850678165818
N           -1.32082292205340       -0.31430287515306       -0.08057753472637
C           -0.81928795579581       -0.23465244375227       -1.45796418264606
H           -3.08528714110254        4.36777808447384        0.24747845723417
H           -4.83079001493409        4.14130834238512       -0.04437194788748
H           -3.66066244060403        3.89260011498788       -1.36873389996052
H           -5.39781310436149       -0.79346007528808        1.10720577930990
H           -2.39510467814379       -3.10522428728765        3.07092454519675
H           -0.98933726383818       -2.14920771158794        3.57081832940066
H           -0.81039743211832       -3.46473807801499        2.37446758635491
H            1.06058510551282       -2.60544889470749        2.71975378138467
H            2.31391271832097       -1.53888562876971        2.12443041017969
H            0.86411601376295       -0.84414353747426        2.85861230873244
H            0.02316358596833       -3.63218310604214        0.39770044787785
H            0.74402302812290       -2.79681008023351       -0.98350397847435
H            1.76877103484414       -3.36047287130980        0.33995389297949
H            1.00460662489848        0.42271158340169        0.39697976728519
H            6.05985813693775        2.48799957883923       -2.56065737739270
H            6.56583876162280        2.68181304106018       -0.88317380128852
H            5.62888320865986        3.96741456481040       -1.67498933191682
H           -0.19713268696016       -1.09234255219004       -1.69568239973597
H           -1.68537515760169       -0.22952838765790       -2.12383344079771
H           -0.25477400287539        0.68711791952648       -1.61075706347432
