43
 energy: -83.162139115479 gnorm: 0.000810896673 xtb: 6.5.1 (579679a)
C           -5.83925407218911       -2.10089322520607        0.70775841533281
O           -4.60403012637538       -1.49876772805437        1.15575945333039
C           -3.78055190036757       -1.00595766318629        0.28521625998598
O           -4.15446879526668       -1.09296395157975       -0.94237734091275
C           -3.46185355778566       -0.62327408680673       -2.10877184223965
C           -2.55465837866546       -0.42744265080401        0.78229490543617
N           -1.67321547437985        0.03874939459610       -0.17143609703422
C           -0.55232159360465        0.56961175302801        0.19400428415975
C            0.40996901921640        1.11592889883452       -0.84880229782581
C            0.48802045367974        2.64437663175791       -0.71993906615263
C           -0.05483238039362        0.73709849410012       -2.25412488360796
N            1.73434256504515        0.51090244098890       -0.66706298520749
C            2.62057178175772        0.81454800893121        0.30340087458449
O            2.39950836581885        1.53797593858849        1.26480833951863
C            3.91354194225419        0.13230164499039        0.08432839928744
N            4.20249647162971       -0.67965393068763       -0.88882997303774
N            5.49156432198164       -1.07095190020277       -0.70192765628631
C            5.90974477013326       -0.47178925057964        0.37433455303346
C            7.24784123602262       -0.56045109636861        0.99894007971972
O            4.95694526610747        0.29982491593937        0.91571742457345
N           -0.20464153881007        0.70267027259490        1.49830378292734
C           -0.96658399145872        0.27121465708781        2.55531641866259
O           -0.60827363933042        0.38918153128806        3.70626231080454
C           -2.25088687911231       -0.33930955185308        2.13321601792768
O           -2.99617625879213       -0.74589197047089        3.13850177902234
H           -6.44096504342021       -1.34834981734727        0.19789952822922
H           -6.33590502907644       -2.45970916115056        1.60513909300712
H           -5.61186601586356       -2.92284945562855        0.02868847318105
H           -3.29101835534056        0.44960941800025       -2.03167911791937
H           -2.51190529871190       -1.14621896389746       -2.20895683262311
H           -4.12026066234885       -0.85203629090756       -2.94555484404645
H            0.77922864184085        2.94346196914641        0.28438905124589
H           -0.48864836829648        3.06877888718835       -0.94405287027441
H            1.21628234172835        3.02842085976887       -1.43203378575355
H            0.66694966590227        1.09133521672717       -2.98820279004107
H           -1.01853339139300        1.19815330547016       -2.45946428144106
H           -0.15544996466951       -0.34306109915769       -2.34301210451154
H            2.04151487965461       -0.11641661781150       -1.39649762499371
H            7.85058687819558       -1.29596757611008        0.47154152783745
H            7.74032844165560        0.41123051610124        0.95790012557759
H            7.15160375992530       -0.84481642746900        2.04613641948090
H            0.70146763922445        1.13584411450245        1.71730208439299
H           -3.84620872611095       -1.14444545434973        2.89137279265072
