21
 energy: -30.770186445666 gnorm: 0.000555101977 xtb: 6.5.1 (579679a)
C           -0.01462993136428       -2.08642856024422        0.74936350271313
C            0.50370006019950       -0.92273661061876       -0.13222418535940
C            1.94776295989143       -0.68187567358738        0.05759507638929
C            2.42501582979314        0.58455948309212        0.16667672480841
F            3.72730324542321        0.78839578182937        0.31970430971278
C            1.58186070724248        1.71030974245193        0.16381654888117
C            0.21798006660490        1.54443221861051        0.00580012082789
C           -0.35144896951614        0.28447741258346       -0.12218040730893
C           -1.82419311697203        0.14701712137393       -0.25711351359616
N           -2.44350800739575        1.38888934021910       -0.66819955961849
H           -0.02991893133257       -1.76861699085034        1.78960142239229
H            0.64661086982545       -2.94351699549437        0.64262738125947
H           -1.01732701313937       -2.37187484026121        0.44177494584256
H            0.42262667439012       -1.30692679914249       -1.16727780195488
H            2.61045736616827       -1.53803658432811        0.09429280543182
H            2.01393386840844        2.69525174499297        0.29819996055597
H           -0.43912395152029        2.40774167785804        0.00985890303845
H           -2.07569909118349       -0.68359257523018       -0.92990742040797
H           -2.21444185701026       -0.12531524355235        0.73264340433263
H           -3.44343579057411        1.31366204252771       -0.55293211394716
H           -2.24352498793865        1.56418530777044       -1.64211910399264
