42
 energy: -82.940535221576 gnorm: 0.000754516291 xtb: 6.5.1 (579679a)
C           -6.16696427046921        1.33697268115408       -0.56170934152695
O           -4.89339922041007        0.70250150461393       -0.43802197690129
C           -4.60797891988112       -0.23677768756868       -1.35437429452054
O           -5.37978153566846       -0.54008847828538       -2.23657599273018
C           -3.26223161933325       -0.82383288440571       -1.14111347848505
N           -2.56640632668758       -0.32959006495539       -0.09587942847792
C           -1.36996753941499       -0.76236394360299        0.17565607871643
C           -0.65039609253492       -0.23016606786558        1.39107811795007
C           -0.79769440035243       -1.27411736119637        2.51149103298604
C           -1.23917866937484        1.12124268085621        1.80799669145529
N            0.76530274093172       -0.05990030825412        1.04342152396995
C            1.69690502880944        0.32157414249951        1.94428176929743
O            1.52187382160417        0.47221599878727        3.14044368219407
C            3.02361087565643        0.55336405688813        1.31884655730004
N            4.11850176330494        0.97366431000133        1.97254555661770
N            5.07534594218623        1.09791818442605        1.12865276351747
C            4.60228923210780        0.74280990785506       -0.18289898789842
C            4.68557218857837        1.94688745900102       -1.12403352426660
C            5.36681749816805       -0.47087288220752       -0.71641664801209
O            3.23043119647583        0.39389075758242        0.03203871817862
N           -0.77300194544281       -1.74149970935675       -0.55411036173971
C           -1.35504243831994       -2.35277795756997       -1.65548425328286
O           -0.75566112263662       -3.22022117781118       -2.25738585512889
C           -2.74446306009584       -1.85507245678447       -2.00448018181725
O           -3.33575376291465       -2.34029611943435       -2.96480816850932
H           -6.96836090097858        0.59911224746625       -0.47020270776175
H           -6.24700157711347        1.83802493790901       -1.52997299293538
H           -6.23203379428427        2.06474618343185        0.24448806685215
H           -1.85472655486718       -1.49018199825761        2.66141334513829
H           -0.37792024281688       -0.89447414870270        3.44043735871494
H           -0.28136381943923       -2.19054330756405        2.23188014071513
H           -2.30470353821023        1.00526885382660        1.99991486829091
H           -1.09986535839034        1.84686963660425        1.00862106954344
H           -0.74594754293620        1.47975680004776        2.70917097893172
H            1.02018541866075       -0.04735811542261        0.06947764303494
H            4.28416411472939        1.67066966776007       -2.09574678943117
H            4.10493831904774        2.76858153794454       -0.71033431402280
H            5.72529282719478        2.24738915563945       -1.22673363240369
H            5.26280549571440       -1.29872616762947       -0.01838890284833
H            6.41708184067921       -0.21093768722655       -0.82324417025594
H            4.95724294022956       -0.75570060494559       -1.68236687346701
H            0.15148600847659       -2.05796157524583       -0.30853608699177
