33
 energy: -57.860136406923 gnorm: 0.000604198692 xtb: 6.5.1 (579679a)
C            4.23113277597813        1.46519399478175        0.59996652066091
O            2.90412517277624        0.95996847970657        0.35435665792944
C            2.81636764381280       -0.26653573186362       -0.11281442212683
O            3.78134055076010       -0.96942247491535       -0.33298720551313
C            1.42855931287607       -0.80113164335082       -0.26335902581522
C            1.26624864799963       -2.16436570858685       -0.24698584281829
O            2.25067436055934       -3.03638028969368       -0.25750983357396
C           -0.08272230155877       -2.74836551452134       -0.16576301915066
O           -0.36583337794218       -3.91857069194543       -0.17598116374337
N           -1.06977203020936       -1.77208948090996       -0.02768393029363
C           -0.91605623573144       -0.44260452725518       -0.11754250984892
C           -2.18135801096107        0.39757333020197       -0.00883234184056
C           -3.22020941569519       -0.29407578291577        0.89311090691597
C           -2.76646062188053        0.57985797203667       -1.41895137376595
N           -1.84878878505210        1.69234271916065        0.56156448975163
N            0.30255051044918        0.03559532696249       -0.30936903951057
C            0.51858511646258        1.44023980112604       -0.69045169675809
H            4.80930826283256        1.43843063106526       -0.32503158548733
H            4.10531245593612        2.48745521355050        0.94823495459668
H            4.71922975660021        0.85270501570930        1.35989396788476
H            3.13033235228053       -2.58222512345336       -0.31115592489776
H           -2.00110404112921       -2.14687697843255        0.09946255998865
H           -2.76515507835904       -0.60893550543791        1.83012420313345
H           -3.67784647823414       -1.15063086008169        0.40036810894615
H           -4.00576036487237        0.42615140181255        1.11399895931376
H           -2.96742636546690       -0.39142503197452       -1.86816114946747
H           -3.69942666418326        1.13535487021591       -1.34205567556674
H           -2.08225838222378        1.13195924550973       -2.06041166137629
H           -2.62749017113412        2.32232913733453        0.42633519660661
H           -1.69361116845095        1.59504608241026        1.55607115028607
H           -0.35898561343552        1.80804828533377       -1.20850162377423
H            1.37561529604835        1.48819397931472       -1.35621623554015
H            0.69088189114812        2.03719185910604        0.20148458485488
