42
 energy: -83.653303992098 gnorm: 0.000465861265 xtb: 6.5.1 (579679a)
C           -7.30958633958670       -0.21423987742018        0.68764513771680
O           -6.02016028426398        0.38471020238350        0.81719627753719
C           -5.01290214861878       -0.24144230729685        0.16135997678353
O           -5.22105838861279       -1.24041558891107       -0.49719117874051
C           -3.69159961836480        0.39485346337163        0.33583667703111
N           -2.68470013137794       -0.27780199130119       -0.29870512109031
C           -1.46068656324189        0.19976483840755       -0.17855948272694
C           -0.37513412747126       -0.60766111059834       -0.89037439516628
C           -0.38088208873741       -2.03075085275069       -0.29840756233004
C           -0.71034463989758       -0.65948535694674       -2.39017110995743
N            0.90502474372536        0.05119754398652       -0.68656557458951
C            2.11306997738950       -0.55733427659296       -1.01595276484000
O            2.17724398372211       -1.49202427593873       -1.84276264506991
C            3.21581264957308        0.04492672509509       -0.35285027925971
N            3.13983760782431        1.02493011456521        0.53150913410622
N            4.31964162951509        1.34798766077778        0.98780371600599
C            5.29579159172851        0.46470212517282        0.33237660327868
C            6.31211415896295        1.30327469627533       -0.46324077133310
C            6.01575293092005       -0.39023916475864        1.39179235893455
O            4.55025999141162       -0.36584142542791       -0.54507945701296
N           -1.09604712932095        1.28029696991156        0.49883068121256
C           -2.03143657023195        2.02239923306225        1.14920513525940
O           -1.73455449192178        3.04755788600937        1.78854734581295
C           -3.41916989904775        1.53724385792141        1.05447509574897
O           -4.33744446407168        2.29142667578254        1.71403223365827
H           -8.00526162003462        0.40424647117273        1.24974050773290
H           -7.29745368905053       -1.22891210981217        1.09427300195249
H           -7.60642358909210       -0.25241770423300       -0.36364695721100
H           -0.08532792387518       -2.00194435582112        0.75055456429656
H            0.30420462816548       -2.67936621501353       -0.84280784706663
H           -1.38789900598872       -2.44134144940307       -0.36800356145518
H           -0.00125695657672       -1.29561675126071       -2.91863540035256
H           -1.71557265196237       -1.05867816418147       -2.52343737137202
H           -0.66984860362386        0.34377265061764       -2.81548663624277
H            0.92878577522313        0.66518175422703        0.12665363147636
H            7.01895091823515        0.65324191592875       -0.97583252491972
H            6.85419973538093        1.96139160479308        0.21247875668091
H            5.78472765107532        1.90678402454001       -1.20048919567957
H            6.72424165659019       -1.06564126371563        0.91554896750742
H            6.54654100046653        0.25699099909960        2.08679840975414
H            5.28119679684951       -0.97590483658513        1.94247159891779
H           -5.23264750179060        1.93173766487173        1.63907202502657
