46
 energy: -87.021042825295 gnorm: 0.000499980528 xtb: 6.5.1 (579679a)
C           -5.39743871701406       -2.65155632718980        0.12610330867292
O           -5.00359051509481       -1.32608757418713       -0.21261706143950
C           -3.78404755870549       -0.91309841888097        0.33685631564841
O           -3.73852948550911       -0.94200339663751        1.72809128377275
C           -4.08764280549803        0.27656275927546        2.37955610837676
C           -2.75353981818009       -0.43243630745266       -0.42361096477278
N           -1.65332720388205        0.06361159555680        0.28757036476882
C           -0.62237906569959        0.54321076812718       -0.31943752994242
C            0.48136576987561        1.07600693890721        0.60018733396311
C            0.19275320668581        0.65225213755622        2.04841458771398
C            0.53166905289370        2.60881064972143        0.52630585221199
N            1.75608604138942        0.46711650381928        0.19580086389524
C            2.95624975153655        0.78038664335361        0.73351268053198
O            3.17469990387744        1.69191337604064        1.51976568144993
C            4.01034126076188       -0.12215750559043        0.21698399201947
N            3.83128025654595       -1.11931777151422       -0.60388662001819
N            5.05770477399546       -1.67952901743626       -0.81472409608291
C            5.90460060484959       -0.99265341452746       -0.11296997390045
C            7.36619330597918       -1.20063065636044       -0.00591787719330
O            5.30966198991539        0.00399311802846        0.56305834448776
N           -0.51267024300550        0.59469471453950       -1.67473501715615
C            0.58402056612130        1.19039004318157       -2.43025888403854
C           -1.59415737899795        0.13432791143138       -2.52851612382640
O           -1.42126670631838        0.24584681775501       -3.76725525974353
C           -2.68956755490211       -0.38026854052324       -1.85280373192973
O           -3.75122308667992       -0.86168839615967       -2.63430370521050
H           -4.70794508529758       -3.39047793635107       -0.30140607326318
H           -6.39514737464329       -2.80684439289686       -0.28622840370647
H           -5.43287379641527       -2.78186549919401        1.21329792287945
H           -4.05653260259707        0.08773725893562        3.45409849657395
H           -3.36971659615802        1.06808018429471        2.12993478743152
H           -5.09592330603118        0.60395710824038        2.09873659860984
H            0.99105265201206        1.00151768617199        2.70098194235607
H           -0.75083221968163        1.08482523066787        2.37608830321048
H            0.12158122936275       -0.43247961949220        2.11567062929602
H            0.87024848817203        2.95462149022824       -0.44744274824396
H           -0.46956463917796        2.99886211192993        0.70616424995901
H            1.20112747491329        3.00633707420368        1.28668811110301
H            1.70577755918128       -0.39707248125109       -0.32651794913966
H            7.65484279919860       -2.07285916860501       -0.58705958548534
H            7.64759800788411       -1.34712008627979        1.03646857080618
H            7.89643290751012       -0.32410686770465       -0.37790987475729
H            0.23953728245213        2.10780716786541       -2.91528747174392
H            1.43289048229854        1.41577068518159       -1.79478135985098
H            0.90102568265526        0.48945324524010       -3.20657921886278
H           -4.53082429058321       -0.97383984201087       -2.06780079943746
