16
 energy: -34.150430470545 gnorm: 0.000851562702 xtb: 6.5.1 (579679a)
C            2.69342232579005       -0.54835780183552       -0.10362041093248
C            1.26107573337307       -0.17091559577572        0.04155612952309
N            0.50769547546184       -0.52380690145545        1.00842511825203
N           -0.78898035264029        0.04530333413888        0.76323517241233
C           -1.72242164357850       -1.08287088843133        0.60391745395392
C           -0.62307417088754        0.82284607264866       -0.45284572539311
C           -1.25366797957817        1.96580872955025       -0.79526989203676
O           -1.17180489343106        2.78183418228714       -1.70243662755683
Cl          -2.89694701682074        2.08855960087274        0.25438075368733
O            0.70819593710520        0.60105791400590       -0.90720249435772
H            2.94860688308787       -1.31107056310379        0.62867708385944
H            2.87476113224808       -0.92922351181228       -1.10760788790275
H            3.33099462908684        0.32315488376812        0.04872998857741
H           -2.70812663554480       -0.67679432102074        0.38653366601546
H           -1.40899965821540       -1.74770969276875       -0.20626456802083
H           -1.75072876545650       -1.63781844106821        1.53979223991948
