39
 energy: -79.830299809692 gnorm: 0.000828285430 xtb: 6.5.1 (579679a)
C           -5.99243464042655        2.12396089560214       -0.25649669530057
O           -4.84876807002782        1.40589109744855       -0.74447917982805
C           -3.91674697836922        1.09889242594160        0.16859601332847
O           -4.01961758509047        1.39781685511286        1.33384644651577
C           -2.75444013601502        0.35989819482250       -0.39902705480578
N           -1.80226160671517        0.06601751436929        0.54840559487304
C           -0.73284319695852       -0.56166471838687        0.20501686254619
C            0.29568620252079       -0.94150786506618        1.24789174849948
C            0.08748745900526       -0.11770389226936        2.52189494882067
C            0.14730552680130       -2.44573455119845        1.52468480324012
N            1.61975186457928       -0.65946399031651        0.68006101261378
C            2.77282767900048       -0.95566760504605        1.32138808712824
O            2.86369756618241       -1.57491992913959        2.36709858528377
C            3.96876534851240       -0.45490071610476        0.59892611626824
N            5.21281778529649       -0.59981941032846        0.93467020335899
N            5.95420014556523        0.02843482907877       -0.01981083097645
C            5.11749950524753        0.52051858805251       -0.87963496961768
C            5.42488406492320        1.29592163847226       -2.10067174221930
O            3.84391868596737        0.25100128242816       -0.54679741731686
N           -0.51055488057195       -0.96861427560634       -1.07825778125213
C           -1.38723963770909       -0.74418443605437       -2.12168537196958
O           -1.13713924452104       -1.13403780619025       -3.24768546407894
C           -2.59503520699361       -0.01416440837393       -1.70960671962093
O           -3.45656813056451        0.21853123381222       -2.70441964897209
H           -6.61401484427929        2.34434689975572       -1.12053589578701
H           -6.53936117736604        1.50668502567786        0.45947630422834
H           -5.67054267656473        3.04808883917996        0.22841842353800
H            0.80937607708675       -0.41593923216667        3.28000737657535
H           -0.92053970830966       -0.28456840557167        2.89861645659957
H            0.21055615637213        0.94162778363715        2.30268829947871
H            0.38810479186509       -3.01356872562576        0.62794274666768
H            0.81202962956550       -2.75042385487619        2.33035235881235
H           -0.88097323244309       -2.65704541681354        1.81384928122059
H            1.66893179770710       -0.03863909790355       -0.11063175485826
H            6.50280519139511        1.35784455945750       -2.23313914814795
H            5.00962486830837        2.30087291431173       -2.01689948345328
H            4.97325720382905        0.81647308552618       -2.96927070780114
H            0.34044213420289       -1.45962513432056       -1.30769198877201
H           -4.24488873100964        0.70936980867271       -2.41406281481602
