42
 energy: -83.647718227446 gnorm: 0.000805274876 xtb: 6.5.1 (579679a)
C           -5.35711701001548        2.86782735789199        0.03401942956264
O           -4.20421193828002        2.06126917640684        0.17241096759706
C           -4.13510680535263        0.96919548775933       -0.68554436055524
O           -5.06093319638704        0.77200794537106       -1.47493204468666
C           -2.95406029986818        0.19175777472228       -0.49698589413158
C           -2.63824791723152       -0.93795472145778       -1.28007589020139
O           -3.32873706820429       -1.44592018385370       -2.18593107182197
C           -1.26842730657637       -1.60644700494213       -0.92461070934514
C           -1.28705731218325       -3.09004631858044       -1.30792342654712
O           -0.18823419184718       -0.95496006755452       -1.57695194730012
N           -1.11170210730958       -1.48297064722643        0.51778517643852
C           -1.12621605154639       -0.11882755621939        0.88394582026837
C            0.11643937992360        0.36368404375944        1.61318879982215
C            0.32586110803487       -0.40146916151118        2.93008455359134
C            0.00374042521596        1.86947518427802        1.89213268387410
N            1.16301626728920        0.06717798284760        0.62213930028358
C            2.40540292234457        0.36038388594484        0.91849840746901
O            2.89887270459207        0.86081635374812        1.95319066420019
C            3.31443468594501        0.01159060228557       -0.23958508958382
N            2.95795533516765       -0.38310742435134       -1.42506751963533
N            4.10937958684350       -0.56670632867673       -2.15259564179193
C            5.08788660032786       -0.27058219486374       -1.36249066808500
C            6.53754631793284       -0.30904628769085       -1.67098981010829
O            4.66290069192579        0.10506731196675       -0.14437693179784
N           -2.00748300779438        0.68523437548501        0.44114350384358
H           -5.41010040433515        3.31792400491340       -0.96456104759047
H           -5.29159185084223        3.65786104986769        0.78255615701020
H           -6.27137024959743        2.28610366235932        0.20089562622228
H           -0.32243189443720       -3.54174314320885       -1.08538057196122
H           -1.48938255674115       -3.18750775600803       -2.37412468278588
H           -2.06423630824246       -3.60794504922862       -0.74881871510008
H           -0.25022258357300       -1.93025237928390        0.81570846148539
H            0.47281697544232       -1.46414112708800        2.74014015747858
H            1.20108649683098       -0.02110796724932        3.45533939923374
H           -0.54797901442593       -0.27828909091387        3.57112223313285
H           -0.11635463156845        2.41726232866619        0.95621814010529
H           -0.86800614797078        2.06085412311080        2.51948461651699
H            0.89321932595502        2.23110163057579        2.40612611770734
H            0.44068441758134       -0.60512094121785       -0.86805629240257
H            7.05485259983384       -0.95967672051079       -0.96678498857015
H            6.96849620810428        0.68845001246933       -1.58773403750761
H            6.68461680504154       -0.68121922279073       -2.68182887433133
