43
 energy: -83.826320462022 gnorm: 0.000331294240 xtb: 6.5.1 (579679a)
C            7.08164567731276        0.76047738742327       -0.63504859231566
O            5.89336827916754       -0.01458023486105       -0.61350138023768
C            4.79723990073172        0.60123721575529       -0.06617698226033
O            4.87668212891275        1.75686373477574        0.35763590608844
C            3.60568830936571       -0.21418070673090       -0.03881908419955
N            2.50333098569882        0.40740556104116        0.53266633084303
C            1.38479221808413       -0.21770588487604        0.63288417301068
C            0.20184746619599        0.43590679126131        1.32642016251189
C            0.29063827337634        1.96195840039664        1.17736937730116
C            0.27693966107654        0.02354690920822        2.80723880947167
N           -1.01255197632158       -0.10032055770477        0.70670088488309
C           -2.28275930265330        0.42901893801441        1.11586047189822
O           -2.46377531452281        0.94088314505919        2.25004904546769
C           -3.25360290526443        0.23664189251782        0.13577104421859
N           -3.08058405589115       -0.29808994214028       -1.12639285270665
N           -4.29660311228673       -0.22792241596323       -1.67163102254635
C           -4.49675068498104       -0.70602549074316       -3.01950482847158
C           -5.19339673263759        0.29809676272154       -0.87014915133144
C           -6.63571524167294        0.51354538765924       -1.13008437208890
O           -4.61885632915912        0.62287908702137        0.30148407952180
N            1.21634081500039       -1.51289749542023        0.21326808781497
C            2.24375867396935       -2.23591470744896       -0.39569173002099
O            2.05754924109749       -3.40381551006861       -0.78666802528638
C            3.47088232508839       -1.53235263215600       -0.50713321711966
O            4.50228388171657       -2.21790872692668       -1.09426209328435
H            7.84897763868094        0.15653663743946       -1.11876395505375
H            6.93405128246437        1.68819929469998       -1.19849599638134
H            7.40060071376518        1.01475047685198        0.38177260193876
H            1.25487231389342        2.30950668703824        1.54833488890056
H            0.19954766941195        2.23830375612080        0.12721425834691
H           -0.50570279606850        2.44301901104274        1.74300328729188
H            1.24971863139621        0.30210463894183        3.21275404828613
H           -0.50114619761314        0.51677079844018        3.38650804213025
H            0.15283640988523       -1.05548999554812        2.89432540256486
H           -0.94314233798815       -0.09632678605769       -0.30590281051361
H           -4.84148260114353        0.11286262057363       -3.64915458440552
H           -5.24210587533681       -1.49965953960653       -3.01865149245591
H           -3.54565422218705       -1.08460104004336       -3.38591044588245
H           -6.78427860913380        0.99459749272838       -2.09637477019477
H           -7.17338215176798       -0.43640178549336       -1.14215449412676
H           -7.05114397374244        1.14209512731782       -0.34522728927268
H            0.31470331688649       -1.95530234544180        0.30098654559400
H            4.16433760718772       -3.09771295682693       -1.33239527791668
