42
 energy: -82.983777745031 gnorm: 0.000219919461 xtb: 6.5.1 (579679a)
C            6.89151744247351        1.70952010469933       -0.35851788313562
O            5.74748202275073        1.16026616577807        0.28101486089318
C            4.71569241417904        0.83079576254821       -0.53474249693433
O            4.79063237646707        1.01974783544600       -1.74328883495233
C            3.56481337409109        0.24934209700674        0.14211345364302
N            2.54640107784168       -0.08490284502052       -0.73304368788864
C            1.47122541971009       -0.62339435911176       -0.30102898115294
C            0.37430895619232       -1.03790598182307       -1.25762841872988
C            0.51365322079221       -0.28908999150416       -2.58471471247758
C            0.41480949432586       -2.55356252567054       -1.47148215859385
N           -0.93510234960847       -0.72506328149860       -0.65138493948910
C           -1.24956181506954        0.49475145374143       -0.20340437425685
O           -0.53714293192691        1.47705418068481       -0.19138313723101
C           -2.65066380329431        0.55710634853126        0.34480162107807
N           -3.24933163405377        1.58732150590346        0.86155942401019
N           -4.47429870486452        1.14251652660748        1.20016635830460
C           -5.44040686805589        2.04432601335152        1.79340690228536
C           -4.59595306686351       -0.12964762172878        0.88786237544013
C           -5.75167109487590       -1.02432931002070        1.05042722721968
O           -3.45887640813653       -0.52314210983539        0.34912244657141
N            1.27427982366199       -0.90810632342834        1.03552033958643
C            2.18288247168598       -0.60262857654946        2.01745522126159
O            1.92171218134446       -0.85925992783170        3.18974532797478
C            3.47045814598094        0.03851436340806        1.54349051862887
O            4.33305877385823        0.32841622250541        2.39154901468038
H            6.63332352453299        2.62925713435856       -0.89280753517561
H            7.62014278183386        1.92834737305405        0.42137648252752
H            7.31527418560714        0.99532589874878       -1.07160070264044
H            0.47682785115099        0.78646824588203       -2.41562962923548
H            1.47283149375776       -0.54125204509800       -3.03609966436069
H           -0.29071716312746       -0.57495910886780       -3.25839261712043
H           -0.38004939744132       -2.85936980198298       -2.14856523692507
H            0.28698393446650       -3.07001179800685       -0.52181364510789
H            1.37444467553327       -2.83684342062812       -1.90228877045470
H           -1.63944164839203       -1.43911656148969       -0.65835883056014
H           -4.93083127871133        2.97536199184509        2.02937862180174
H           -6.24298557654121        2.22019262593983        1.07894933638517
H           -5.84372232537551        1.58650580247659        2.69430174229898
H           -6.30848294148139       -0.76824537204578        1.95002321070220
H           -6.41786974483825       -0.91437306497711        0.19152780218311
H           -5.40909420333590       -2.05698883448496        1.09249222675194
H            0.41344731375924       -1.33894179090332        1.32142974219051
