42
 energy: -83.588820440791 gnorm: 0.000468828473 xtb: 6.5.1 (579679a)
C           -2.28500895389628        3.37022956823768       -1.61892965497693
O           -2.67732562547935        2.05828565738611       -1.27154900553265
C           -1.90508410954688        1.44694032130799       -0.29590000442103
O           -0.95431993827293        2.07566344572830        0.19302805018522
C           -2.29579065782348        0.12660494598704        0.04984985242659
C           -3.30565284450311       -0.65058508559437       -0.55977392018992
O           -4.07279366617029       -0.28699544434605       -1.48471703277698
C           -3.37653929754099       -2.09484205301212       -0.07946461318837
O           -4.40422185442335       -2.80255272942299       -0.16773106844155
N           -2.21687482872285       -2.61123824766121        0.37676879332312
C           -1.12031988955352       -1.83832756693160        0.91537384509093
C            0.14483239045969       -1.93627893518810        0.03200538735424
C            0.87540914040188       -3.24295092463503        0.39275333255028
C           -0.11706850492993       -1.90197314251072       -1.49179146570606
N            0.98440632916247       -0.79247571568740        0.39968011568671
C            2.22164934993094       -0.54474757606979       -0.03941671069744
O            2.87740129326819       -1.25780872701803       -0.80601795728392
C            2.76021908423500        0.71677998774644        0.52339268627053
N            2.15911216564371        1.51928344540993        1.35993569302129
N            3.02286853789881        2.54768995560759        1.61198350153009
C            4.09193777627179        2.31264066871883        0.92159104254058
C            5.31933975830166        3.13946130275541        0.85702693250531
O            4.00089184705818        1.17455960300887        0.20999608511637
N           -1.51777720561231       -0.45719762692182        1.13550850346601
C           -2.21550022898844       -0.32460673996233        2.42641783228795
H           -2.36057624934255        4.04946455962815       -0.76077876444719
H           -2.95617558646356        3.71362099076739       -2.40736915681525
H           -1.25198335192871        3.39487131993214       -1.98782567581693
H           -2.25201364172075       -3.58226052991478        0.64552069742064
H            0.22605077128376       -4.08852263577007        0.16902687181566
H            1.80439601419401       -3.35886519206973       -0.16547105506040
H            1.09625187695791       -3.24984131228031        1.46008502471385
H           -0.79829373913378       -2.71047833790419       -1.75645709966343
H            0.81239769214583       -2.03388759818072       -2.04604381240638
H           -0.56831510694951       -0.95056600240543       -1.77676312047987
H            0.51720336122506       -0.09213856304230        0.98212960512493
H            6.17473739149846        2.57430785080181        1.22585561038130
H            5.18904595143195        4.03167307818948        1.46405148993550
H            5.52560245577677        3.42805237800975       -0.17320856515738
H           -3.20934152494808       -0.79691801001612        2.41424267906948
H           -2.33423410149560        0.73356098496113        2.67409079611439
H           -1.60854327968928       -0.80763036761879        3.19472125514885
