42
 energy: -82.971629066416 gnorm: 0.000894881950 xtb: 6.5.1 (579679a)
C            6.26280778620457        2.59368451285108        0.95388399007306
O            5.16375931540727        2.35829654913812        0.08201543213575
C            4.27643654262193        1.42360113171128        0.49094222503309
O            4.43092457115258        0.82973019270973        1.55010703009610
C            3.15908462155234        1.20217642695888       -0.42121085061310
N            2.28749651318901        0.23643255494818        0.03690253188362
C            1.24836921094798       -0.08324238861206       -0.63689562443537
C            0.32969091293473       -1.17931040953303       -0.14258569824896
C            0.41316324649344       -2.38736734168699       -1.08372385850847
C            0.69650941550565       -1.54904005180486        1.29546919608213
N           -1.05352003366878       -0.63602446594622       -0.17526459007776
C           -2.14719514554260       -1.27802288027940        0.14808823323835
O           -2.06595318224306       -2.50424296650543        0.57910765726259
C           -3.21537603361441       -3.27905981867702        0.95019740539489
C           -3.40096324543407       -0.57919354964938        0.00091331627419
N           -4.61715278053160       -0.97995256938944        0.26001593722372
N           -5.44156548208794        0.03366504415866       -0.06336883388707
C           -4.69478414493850        1.00889742497018       -0.50628943970579
C           -5.13183932248419        2.33358819838599       -0.98554400088631
O           -3.39715126421563        0.68014335318960       -0.48641517606036
N            0.94714934152675        0.50632858226438       -1.85005043303728
C            1.72707894659579        1.48312261691851       -2.42920223704948
O            1.39737064635664        1.96006305335047       -3.50771717383194
C            2.96401612864941        1.88602165650144       -1.65204551508227
O            3.70310721193343        2.75991700219899       -2.13135982587880
H            6.85386332134171        3.39556040387535        0.51355866175042
H            6.87506684665676        1.69205593067612        1.05362161089913
H            5.91088654143516        2.89230214326712        1.94583396948059
H            0.05799651164430       -2.11343247762738       -2.07499659997452
H           -0.18459827956971       -3.21468284043991       -0.71100674071016
H            1.45211327409056       -2.70717122832058       -1.15338126890593
H            1.75043540854483       -1.82419552089587        1.32429232611142
H            0.54077875539776       -0.69192660348165        1.94854756350319
H            0.09886711406154       -2.38500490872222        1.64744959569645
H           -1.17376654504889        0.31831297743255       -0.49199080329750
H           -3.73189095915955       -2.80370395100252        1.78529713796991
H           -3.89379331156635       -3.37135740726892        0.10117045927020
H           -2.82740736815179       -4.25341113816810        1.24127843762559
H           -6.21682417988965        2.39313362432972       -0.96076408609763
H           -4.77539808447802        2.49414426263732       -2.00249710611015
H           -4.70583530804109        3.11352995980740       -0.35454191640006
H            0.12804348642399        0.22563391573190       -2.35871393821005
