21
 energy: -30.830638391803 gnorm: 0.000327186609 xtb: 6.5.1 (579679a)
C           -2.17559821404664        0.12581889332458        1.21254702934395
N           -2.10484828377119       -0.50065509716090       -0.12881583068394
C           -1.18216883885293        0.21468640963785       -1.07054185892392
C            0.24119668214254        0.12890951487075       -0.58741097819750
C            0.96306283816098       -1.05147956627102       -0.76305677800152
C            2.27684436073159       -1.14196012138548       -0.32945160467309
C            2.84830758177102       -0.03317695502861        0.27149913197603
F            4.11589338281143       -0.11144840991515        0.68551239462285
C            2.15927877787046        1.15222637159738        0.46026641060410
C            0.84357843736699        1.22584033919346        0.02649285110916
H           -1.18185970642747        0.11322168224230        1.65359261620173
H           -2.52942721671489        1.14740510889552        1.09849212498361
H           -2.86964326893447       -0.45324235786643        1.81628492827804
H           -1.80267109002340       -1.46738279897302       -0.03344760739724
H           -3.03406291047915       -0.50806933094331       -0.53826090124720
H           -1.52913365605828        1.24670377035765       -1.13239508004016
H           -1.30478332554117       -0.27303307504379       -2.03902833194369
H            0.49452177478837       -1.90120246497611       -1.24348593742116
H            2.84856131292793       -2.05194774956849       -0.45828161984184
H            2.64039580952710        1.99647039591566        0.93733357977417
H            0.28255655275138        2.14231544109686        0.16215546147777
