42
 energy: -82.916738743637 gnorm: 0.000613649005 xtb: 6.5.1 (579679a)
C           -2.70975701366440        3.45815633841593        0.28631181016055
O           -2.53645856446146        2.08822694762099       -0.05126278937926
C           -3.64854096304521        1.45423883969046       -0.54214218018860
O           -4.69646930247920        2.06358310477503       -0.67501636044763
C           -3.39546533613267        0.05713417564052       -0.84649468633360
N           -2.10456172555601       -0.36981854114754       -0.59649354913230
C           -1.75671688160839       -1.58376429589106       -0.81161660318533
C           -0.33213608447309       -2.01415770165212       -0.51593201309031
C            0.35266922357535       -2.58045607013458       -1.76502620181263
C           -0.29695896513868       -3.02102464690551        0.64074606658729
N            0.34307349653391       -0.77748152186695       -0.10646327598884
C            1.61550298604801       -0.67762242805921        0.24393415998482
O            2.45066789813363       -1.56620362314779        0.29619366617715
C            1.96481270797703        0.73952134146075        0.59048633522339
N            1.23470175955444        1.78771375552655        0.55436380318035
N            1.98630669091293        2.86340400499228        0.94342427291285
C            3.16938345848081        2.46824170108590        1.21462051252739
C            4.33254974174924        3.24540062938686        1.66855329063106
O            3.25044951221163        1.08448170526875        1.01095654025596
C            4.38429955353290        0.17750047225016        1.18546248241013
N           -2.63861977015579       -2.52235978595457       -1.29329309667058
C           -3.95216446385521       -2.24090349825769       -1.59539864652076
O           -4.67814516625978       -3.12990222764759       -2.02523926339613
C           -4.39628977932145       -0.81127550939535       -1.35790495735407
O           -5.57050884982341       -0.50269573941255       -1.61563124249327
H           -2.99747337204164        4.04262420151475       -0.59400102195622
H           -1.75298385838437        3.81335744010208        0.66648628232770
H           -3.47905066194724        3.57421472888891        1.05696791347276
H            1.38711314543364       -2.83210607312631       -1.54047663728558
H           -0.16243584908998       -3.48278766080448       -2.08869241800190
H            0.33075970500577       -1.84728906146953       -2.57003565653156
H            0.73077319489579       -3.30601284674369        0.85632483259120
H           -0.85910578619672       -3.91141246768898        0.36557099394195
H           -0.73962429441325       -2.58011068545258        1.53277479979609
H           -0.26933203933123        0.04472599552162       -0.09359470542936
H            5.15836924521423        3.14185833746418        0.96443584663841
H            4.04415078315890        4.29283721549429        1.73943476547549
H            4.66951237529007        2.89427193448950        2.64420966783325
H            4.09254779610702       -0.57086647233417        1.91913677162122
H            5.21628978821600        0.78074971761815        1.53446305657630
H            4.59067061518606       -0.27594976229815        0.21866954673740
H           -2.33180594984012       -3.46804296782190       -1.44881211186429
