47
 energy: -80.232878629873 gnorm: 0.000730681172 xtb: 6.5.1 (579679a)
C           -3.73659245074297        2.19630957772536        0.38682848917161
N           -2.51799715089642        1.39238430220643        0.35278368159044
C           -2.51396968995187        0.03832862107403        0.00079835424433
C           -3.80746907787223       -0.75818539517338       -0.17223297821808
C           -3.49354745767844       -2.05507793957631       -0.94044577631529
C           -4.37448804468234       -1.12189193586615        1.20915296685911
N           -4.81559161176637        0.00471052028081       -0.91263903898145
N           -1.42841832086744       -0.64050841146543       -0.06109807819431
C           -0.17862387791716       -0.05735112701057        0.24792502187805
C            0.89031791774893       -1.00882669302160        0.48909521742106
O            0.76838306565639       -2.23966310490668        0.39145467873837
N            2.11695671657206       -0.45861671539256        0.81321739556296
C            3.18097853330279       -1.29590664470343        1.32641980729334
C            4.49116905157603       -1.04815882877575        0.61123702950676
C            5.69412382912953       -1.36719169034720        1.23887255050992
C            6.90757369104312       -1.15717044294447        0.59795930742147
C            6.89041482937282       -0.62383579723027       -0.67760813008692
F            8.06347527919606       -0.41334346186323       -1.30616854372054
C            5.71729014215893       -0.29699915578198       -1.33262153710788
C            4.51479367732275       -0.51613675056407       -0.67602574854990
C           -0.06645395502149        1.32099304572106        0.33014896550858
O            0.91908071916663        2.02226036712385        0.68651127190063
C           -1.32838033037716        2.12044663421474       -0.09602016713973
C           -1.33133198782861        2.30908801839764       -1.63085862673663
O           -1.26234036075617        3.37574908182646        0.52987311860016
H           -4.51211067242641        1.67625422330228        0.94476285003797
H           -3.51632378382416        3.13591176864784        0.89804503933892
H           -4.11609548868548        2.41812723294386       -0.61580089333042
H           -4.41085209551816       -2.61997327561073       -1.10001952174910
H           -3.05346411458411       -1.81711655188163       -1.90856763692497
H           -2.78817355046244       -2.66870471987064       -0.37947248520464
H           -4.68156393473957       -0.23050431854558        1.75451478348919
H           -3.61790051810636       -1.64603243837036        1.79373917943054
H           -5.24261753321774       -1.77151274886576        1.09825188505998
H           -5.69808409076263       -0.48437190425188       -0.86861750936355
H           -4.55144945887690        0.05527758232604       -1.88881863178668
H            2.14137124515249        0.51488072026515        1.09397196952391
H            3.31574825313719       -1.12910458677580        2.40349356225965
H            2.88818964680601       -2.34585940566222        1.18601537463284
H            5.68868391614091       -1.78104920955677        2.24089307277742
H            7.84692477694408       -1.39713144846669        1.07808254103024
H            5.74827679889766        0.11899775488982       -2.33131317256042
H            3.58030327909179       -0.26216657406425       -1.16594425485846
H           -0.34229711420436        3.43615077777769        0.87251451632852
H           -1.41995435164047        1.34441803848195       -2.12777433529957
H           -2.16009303206527        2.94779680088897       -1.93099341081506
H           -0.39787031294514        2.78430420844316       -1.92723815317512
