33
 energy: -58.551550535032 gnorm: 0.000528035123 xtb: 6.5.1 (579679a)
C            2.95166088108402        1.93350921425668        1.12134002189662
O            1.94083404259622        1.14997709435388        0.49428625347686
C            2.34361921725345        0.37679471074853       -0.53583760837334
O            3.50380067041808        0.36742760988564       -0.91024457977632
C            1.25437708041043       -0.56846892448241       -1.05666677429726
C            1.56833055892279       -0.95206329705766       -2.50890801518385
N           -0.05609923464004        0.07397806654429       -1.00780053264396
C           -0.78365088285140       -0.07447588611514        0.03526982977506
C           -2.13818371888467        0.62144023873938        0.07972801740000
C           -2.34498511691644        1.35463259446836        1.41053275689485
C           -3.24030762404051       -0.43462774884391       -0.12731493020080
N           -2.17840191885113        1.61686080576017       -0.98868898375461
N           -0.43944833444910       -0.82533223135765        1.11818594099807
C            0.54768807828622       -1.88519171877339        0.97573356859380
O            0.52585369078284       -2.81491523747810        1.83265201165557
C            1.34727081428789       -1.73965032346684       -0.11396628272432
O            2.33955436724959       -2.70825263670273       -0.41964233760011
H            3.36974394463912        2.65542525029113        0.41339626361917
H            3.75925093281870        1.29669427645746        1.49493403565189
H            2.48135352051174        2.46045529062272        1.95012653807621
H            1.48512824251592       -0.07573213930428       -3.15119890200161
H            0.85943976225076       -1.70560641803260       -2.84841726601533
H            2.57827335136306       -1.35447981767592       -2.58158354531748
H           -3.29590244459068        1.88548870150729        1.38993716573108
H           -2.35999892125634        0.65816489195232        2.24706301991572
H           -1.54530379218628        2.07957719632065        1.56427424822598
H           -4.22074269323585        0.03796469686655       -0.09552091485809
H           -3.11652678703498       -0.91599748811437       -1.09693335974649
H           -3.19192292012489       -1.19360878541423        0.65304658480601
H           -1.91282576853854        1.17028918670549       -1.86181523591926
H           -3.12581171896899        1.95119397963757       -1.08980940118554
H           -1.14734780541979       -1.02805852914344        1.80519320434746
H            2.24127952660057       -3.41341162315306        0.23512820853617
