42
 energy: -83.002786362476 gnorm: 0.000539749066 xtb: 6.5.1 (579679a)
C           -3.89710631988162        2.57445209025349       -2.25158143711924
O           -3.59821048751606        1.88870912917826       -1.02482970321458
C           -2.75274676869806        0.88331904775947       -1.08996459301370
O           -2.21634922575192        0.48615683625136       -2.08924643996120
C           -2.54623486869264        0.21340920495424        0.30098378774513
C           -2.78893336793335        1.19888501518494        1.44446218270378
N           -1.17550123552945       -0.23943021086109        0.32583224120729
C           -0.85927753878236       -1.39451270594903       -0.09022081622236
C            0.59611492235977       -1.81875853866748       -0.13109780836710
C            0.81907593111564       -2.99203925600442        0.83377022677276
C            0.99779195718140       -2.18692082987335       -1.56662260322470
N            1.37262266623811       -0.66540705251292        0.31009257075898
C            2.71581820620064       -0.64570207899258        0.39189129400177
O            3.45795525357281       -1.58192493128569        0.14850065528933
C            3.19887834466540        0.69369325049439        0.81973726863488
N            2.45918451557063        1.72796262394725        1.08622682547448
N            3.30702051955453        2.74270965574330        1.41644581723143
C            4.51036014188996        2.26190180043401        1.32978113880408
C            5.78669745973583        2.96709710703969        1.57942731905651
O            4.50747782094899        0.97333656698965        0.95769353487390
N           -1.78176235675269       -2.34407796266004       -0.50763656387888
C           -3.13035968535750       -2.22157401226430       -0.35189247574850
O           -3.90712558052232       -3.08544593492646       -0.68747729598603
C           -3.57042000439705       -0.90777413013560        0.30590881501074
O           -4.67831130466400       -0.77413139242346        0.75380570809961
H           -4.41015559104610        1.89695831195417       -2.93657752437398
H           -2.97329523533257        2.93055124464967       -2.71066982619437
H           -4.54013913990265        3.41027064721566       -1.98632995362310
H           -2.55312643572452        0.71353307280631        2.38951174118114
H           -3.83209134107213        1.50877151953875        1.45149205550232
H           -2.15160512169554        2.07122092030785        1.32078455603887
H            1.86381103939993       -3.29627063661295        0.80472790423081
H            0.19829450944295       -3.83665513779288        0.54320926202502
H            0.56148903365253       -2.69143227630851        1.84810464337934
H            0.40165065215349       -3.02431325251203       -1.92221706395194
H            0.84511225977594       -1.33322328268114       -2.22547605064414
H            2.04755298304734       -2.47369610090561       -1.58886717874390
H            0.84761354647922        0.17117507930500        0.54082539118240
H            5.58531607009405        3.98755212423966        1.89558203367813
H            6.38796878708245        2.97877254235493        0.66998091757925
H            6.35418407536118        2.44878870756811        2.35165023993612
H           -1.45923708626083       -3.21593577479677       -0.89932979614098
