42
 energy: -83.631543540447 gnorm: 0.000906623236 xtb: 6.5.1 (579679a)
C           -5.94043570713786       -0.99411299820880       -2.38685108238204
O           -4.97194885595251       -0.07446472408910       -1.88529663286738
C           -4.01201231632081       -0.61330808127939       -1.08639833651277
O           -4.00390140795418       -1.80574393988072       -0.83938099573173
C           -3.02717838791435        0.35932634952143       -0.58536160256930
N           -2.08149784945117       -0.20438089192942        0.23104846198739
C           -1.14731711346471        0.58593139428518        0.71158910734892
C           -0.09025279781339       -0.03782336373924        1.62200260244564
C           -0.37812421573118       -1.52350793197743        1.85930297568840
C           -0.07106862105495        0.72930074661408        2.95406235488841
N            1.19435517627063        0.12346448976718        0.94480306436672
C            2.38602183505154       -0.25487602516295        1.40723559035213
O            2.57977512622661       -0.86625969676051        2.45980387365761
C            3.54999962188084        0.17160383454714        0.43722289281377
C            4.61221222156462        0.90683556434562        1.27665349770860
N            3.02874977567873        0.99751692234563       -0.64049769456712
N            3.26597895092249        0.29504661115614       -1.79535060183970
C            3.86510649730590       -0.80438631889369       -1.52699258174190
C            4.31214547192554       -1.85715104772291       -2.48122915965392
O            4.11303937902717       -0.99605811675396       -0.16156368797127
N           -1.00437781778656        1.88871026165857        0.48595283691665
C           -1.90489866917538        2.53750586989338       -0.30168007424355
O           -1.82302510915681        3.75870799121547       -0.53061739275835
C           -2.98108552823610        1.70824606806232       -0.86845650619219
O           -3.86580827909660        2.37566728450249       -1.65733816860506
H           -6.63741555240262       -0.42327406885074       -2.99595815796721
H           -5.45537934768396       -1.76295334520492       -2.99471534241863
H           -6.47222284334135       -1.47330110688843       -1.56053868665614
H           -0.35920557582779       -2.06569306888905        0.91378525152095
H            0.36159621353587       -1.95267112284488        2.53356748209241
H           -1.36738672296890       -1.63465426077832        2.30163837653283
H            0.70639160336136        0.33979970285792        3.60981974100314
H            0.11417767322824        1.78714371194254        2.76438361025070
H           -1.03500529437776        0.62495205223302        3.45048330197310
H            1.23872136508383        0.69898445842448        0.09086247333841
H            4.92386629977222        0.28725040326770        2.11677347186705
H            4.19458505240230        1.84064923459254        1.64846290812176
H            5.47473012064876        1.12639141298425        0.65082786808811
H            5.40255215651735       -1.92979646653267       -2.50791238435570
H            3.92088908001338       -2.83604937888555       -2.19532246524298
H            3.95550505084436       -1.61153131856150       -3.48071583320693
H           -4.57084965841340        1.80093290961270       -1.98810335547289
