21
 energy: -30.788711564247 gnorm: 0.000696332262 xtb: 6.5.1 (579679a)
C           -2.39210201812991        0.78060790665321        0.73137421106472
C           -1.73633173673091       -0.11685653427196       -0.32400423212198
F           -2.76514424748354       -0.64368952066775       -1.08830618249693
C           -1.00997499846061       -1.25316845176124        0.33255524348618
C            0.31440711993150       -1.29295396283669        0.43069057309987
C            1.16483731726444       -0.25839505943401       -0.20332786310381
C            2.61943655942119       -0.48975797978662       -0.34283366236598
N            2.15023099881642        0.39801111026577        0.71524031107771
C            0.47496565628913        0.66231797638831       -1.13725019621510
C           -0.85043710246570        0.69193996633591       -1.22457506154064
H           -2.95641717352751        1.56899781577455        0.23622822038567
H           -3.06489535758882        0.18559744198452        1.34671287882865
H           -1.62504447930796        1.22467293839037        1.36027794039896
H           -1.63061180068939       -2.03091512583479        0.76212055506370
H            0.82610501425089       -2.09709436925486        0.94482321918366
H            3.16944985259185        0.01562480056486       -1.12627413460621
H            3.05101118774528       -1.41364823806683        0.02062611711296
H            2.20129094266658        0.06387945993195        1.66534206668073
H            2.30961462435303        1.38740214795641        0.60157389270738
H            1.10382623733652        1.28069601245826       -1.76568331696415
H           -1.35421659628295        1.33673266521073       -1.93531157967589
