42
 energy: -83.615278226580 gnorm: 0.000290356627 xtb: 6.5.1 (579679a)
C           -6.12328209150213       -0.06597148257884       -0.16103801121688
O           -5.03685884704444        0.69647826642423        0.34577722398626
C           -3.79670603462439        0.32104785003776       -0.06500867508017
O           -3.63785832443367       -0.60555653145524       -0.84760626367707
C           -2.69231587763628        1.07420688561724        0.65587615362489
C           -3.07865148042702        2.52288941043369        0.96408960320972
N           -1.48502670432306        1.05987212625087       -0.15321295271967
C           -0.76089667784619        0.00169486713132       -0.11627424065837
C            0.40954046265379       -0.13942552917947       -1.07991584671477
C            0.01424084875200       -1.18012658661868       -2.13892519303714
C            0.71068552309872        1.21371294318228       -1.73776672512068
N            1.55711545306411       -0.61393549629841       -0.30024235273173
C            2.82183056419396       -0.72690690355166       -0.89666170351647
O            2.98909943776453       -0.89876610457656       -2.12164040192311
C            3.86379103293332       -0.67369207726975        0.08118747312945
N            3.70604432612581       -0.45826624975623        1.39053232556416
N            4.96058811043165       -0.44843386065647        1.93595387827728
C            5.80038974129194       -0.64822165331630        0.97395722045773
C            7.27962430816326       -0.70947742437944        1.07673661714376
O            5.20208900372509       -0.80192102036928       -0.23126323438590
N           -0.99370451365652       -1.05039334980818        0.71271963737154
C           -1.77496159694356       -0.91447464567333        1.90875203817242
O           -1.57914136656910       -1.78206864628621        2.80914172572585
C           -2.61742173430877        0.21883530710739        1.95482499026195
O           -3.34065294211363        0.56731887345612        2.94971337082515
H           -6.06346041626370       -1.10568104509153        0.17705192716280
H           -6.12764888092583       -0.05074374267815       -1.25522509351328
H           -7.03740324186268        0.39148720294272        0.21414077470763
H           -2.23427315737009        3.02985297325829        1.43130073379441
H           -3.33914049555374        3.05133520946580        0.04763407185938
H           -3.92749412854276        2.55071497190414        1.64661499149020
H           -0.11344008219964       -2.15670140251002       -1.67261092010273
H           -0.92777664761150       -0.88472029244810       -2.60155603350005
H            0.77790873650956       -1.25628123561446       -2.91050890816609
H            1.51431984212272        1.11285655926313       -2.46523348460910
H           -0.18301625170316        1.57909930498283       -2.24282981191931
H            1.00212215807744        1.94190198137862       -0.98125805987446
H            1.60906653435307       -0.20028572942955        0.62643395489627
H            7.57484224209377       -0.62802283323479        2.11998044486066
H            7.65112215083770       -1.64891654306489        0.66793263253820
H            7.73383397897297        0.10526031472970        0.51215074844696
H           -0.30712496167888       -1.78957466169484        0.74288137494674
