16
 energy: -34.130759002620 gnorm: 0.000458566607 xtb: 6.5.1 (579679a)
C            3.08917929524740        0.40160043857832        0.14946526485852
O            2.47568381329110        0.26489646805742       -1.13308403769316
C            1.21452096622477       -0.28939023539242       -1.17868905694357
Cl           1.26028451617105       -2.11235219729306       -0.94522214685334
C            0.18202341811765        0.34466003421039       -0.47160827944921
N            0.10887033206471        1.65042650208414       -0.20032365885677
N           -1.19318298780461        1.89016732504621        0.20418442456831
C           -1.82120241946160        0.77003660431991        0.15755734779693
C           -3.24483743772360        0.51239514508766        0.49888861936549
O           -1.03322579390320       -0.26150221830371       -0.26421657130773
H            3.16833288168164       -0.57045243570509        0.65135269853223
H            4.09046592824358        0.80560857420936       -0.00942306502646
H            2.51740222143282        1.08833254344222        0.78747414548031
H           -3.32016668127029       -0.24979570003830        1.27510565519806
H           -3.70356192888732        1.43241295458668        0.85404384714360
H           -3.79058612342480        0.15564719710960       -0.37550318681352
