43
 energy: -83.852242209310 gnorm: 0.000845808568 xtb: 6.5.1 (579679a)
C           -4.98033323551689       -3.41498284071185        0.21320918033714
O           -3.84134209999450       -2.60284941107566        0.00404279249822
C           -3.99286178508691       -1.26636888212269        0.38036264488634
O           -5.09740888386334       -0.89710848773512        0.88046387782435
C           -2.89056470831474       -0.45209141742050        0.17814665182140
C           -2.94479814067326        0.97761516661415        0.50652288550613
O           -4.14017448479330        1.47869820054552        0.95539505017700
C           -1.85637286751732        1.73762991230867        0.31335979847494
O           -1.66047329571101        3.09821047054393        0.50269598731699
C           -2.73695611332965        3.87827479077564        0.98889131505585
N           -0.62296655713190        1.13935265369490       -0.10274974138034
C           -0.71395762270780       -0.19070363439437       -0.57475192477526
C            0.54924730273312       -0.72464163504303       -1.22596800299329
C            0.70602108165030       -0.12601278427325       -2.63332808115564
C            0.49312575492562       -2.25429573581069       -1.29556669240946
N            1.67359054991892       -0.30019398524391       -0.38189731277839
C            2.96939091421578       -0.56376940723410       -0.64766553268213
O            3.38299178084506       -1.25202176311554       -1.57473745140069
C            3.85414652944808        0.07847666448193        0.34838970524194
N            3.47120963871580        0.79461253036689        1.37049227525345
N            4.60569978782345        1.19760678312495        2.01473531320099
C            5.60435813940688        0.70712763522475        1.34961040354738
C            7.04666485638678        0.86549752468820        1.64335969625658
O            5.20249922023458       -0.01117323318458        0.28753349904060
N           -1.72373662775710       -0.94683807873844       -0.41408761625622
H           -5.84208715731949       -3.04770227500529       -0.35770909347973
H           -4.72638680154668       -4.42092524685047       -0.12573743388209
H           -5.25674622218863       -3.44979638739834        1.27440361040229
H           -4.75203698013785        0.67248351914294        1.01912886068021
H           -3.59425862742439        3.85818315116906        0.30555071180905
H           -2.36609891570898        4.90332239456972        1.06197781704795
H           -3.06311110515833        3.54594357354650        1.98192480038767
H           -0.08385919239017        1.76096767105512       -0.69074423510419
H            1.58969530524581       -0.53120610232991       -3.12374849267820
H           -0.17271613102279       -0.36925199346847       -3.22900864853545
H            0.80355422319385        0.95660442889531       -2.57270332898217
H           -0.39427120244200       -2.55258491867622       -1.85271734960864
H            0.43044250311621       -2.67113572669816       -0.29077661763999
H            1.37673356757094       -2.64884385500691       -1.79352037486994
H            1.46588207680564        0.33562084824768        0.37740022680357
H            7.54941890002082        1.34075552349903        0.80140652436690
H            7.17256276738874        1.47702933427578        2.53328045746755
H            7.50628685809734       -0.10951397523551        1.80343584522104
