42
 energy: -82.997996195965 gnorm: 0.000935281807 xtb: 6.5.1 (579679a)
C           -6.25958314121839        1.44458892293335       -1.16351553968195
O           -5.13221716543465        0.59492926322578       -0.94897679017325
C           -4.06187048990908        1.16012396852903       -0.38577168920207
O           -4.03280537903081        2.33265050387029       -0.06805469380603
C           -2.92136592862937        0.23249974265995       -0.18374435303382
N           -1.85013657362014        0.83193009294626        0.38391125626422
C           -0.76574760563020        0.17729526646649        0.63822826311999
C            0.41793035669712        0.83137842869026        1.31180926567791
C            0.23949986982769        2.35259833040057        1.31373400413244
C            0.54058178951742        0.28508580775030        2.74242197954636
N            1.61180197452302        0.46685315385128        0.53715147888998
C            2.86334687128233        0.85346767127210        0.87356924223958
O            3.17074657260861        1.47374858661802        1.87406533652872
C            3.83987895382253        0.41080591027100       -0.15473323966722
N            3.55409984767785       -0.18264222882744       -1.27477797557024
N            4.73632734186618       -0.39945292952244       -1.91666425492950
C            5.66779107732811        0.07744470202904       -1.14679491158248
C            7.12635508844865        0.08850583301876       -1.39431826965821
O            5.16396572705892        0.60432899477579       -0.02125446534120
N           -0.68595101117517       -1.16372546400488        0.34356503450367
C           -1.68609996448340       -1.83546352572914       -0.22043740519119
O           -1.40952401892766       -3.11156102647768       -0.42614311823473
C           -2.35171907170294       -4.02031471873829       -1.01278836413696
C           -2.94337301108004       -1.15140475295597       -0.54785308134781
O           -3.88397392513798       -1.76115617251759       -1.07761027180234
H           -5.99173746835494        2.26656029368608       -1.83250345055456
H           -7.03438358192058        0.82840722465586       -1.61581204271213
H           -6.61002497065417        1.85515832212746       -0.21308152632195
H           -0.68545909561268        2.60559998926984        1.82994459627096
H            1.07632532083774        2.82492183135296        1.82420022325069
H            0.18553065667209        2.72216206483097        0.29085060768822
H            1.36272661275914        0.77272456475823        3.26240468002528
H            0.72296540072681       -0.78730924037355        2.71703071414779
H           -0.38539171021775        0.47578968358438        3.28270421927007
H            1.48851420606732        0.01162734566118       -0.35382908383307
H            7.47194624924346        1.11324411171091       -1.53699280054483
H            7.35102650031638       -0.49483472952086       -2.28424754851048
H            7.65287254370200       -0.32863691471003       -0.53638493859731
H            0.15499829253774       -1.68173072183032        0.55575597608725
H           -1.84163422008405       -4.98286947823375       -1.04348226768451
H           -2.61523086643652       -3.70223782377273       -2.02279373193528
H           -3.25100305426105       -4.09109488373230       -0.39878306359146
