43
 energy: -83.827512264507 gnorm: 0.000592155947 xtb: 6.5.1 (579679a)
C           -5.20595945263261       -1.29605678609890        2.12469881243479
O           -4.08494075423670       -0.75260251890270        1.44762562793371
C           -3.92588093762030       -1.19890533268510        0.12748891100150
O           -4.76309052243285       -2.02145920883723       -0.33329774631313
C           -2.85433199597153       -0.68209357803276       -0.58512830198756
C           -2.52344037871375       -1.18510488972061       -1.91621626716170
O           -3.53920914488979       -1.75457890412248       -2.66432133840765
C           -1.24412704219746       -1.12549753669901       -2.40405406389886
O           -0.71704379248554       -1.48835319987935       -3.48664728874330
N           -0.32075043231385       -0.50162775041469       -1.43147287770750
C           -0.66199379998994        0.28388416564799       -0.42653301869388
C            0.47124865842641        1.10842122341388        0.21515428043429
C            0.46198285805209        2.55211737186055       -0.31317505585195
C            0.40814727855039        1.09218888572271        1.74840577825938
N            1.73871134501478        0.45516039463901       -0.11109860908575
C            2.52881583541586        0.72046739016955       -1.20848345982217
O            2.15403602510127        1.36033291030051       -2.19631373426571
C            3.84593598256835        0.11716352751112       -1.10816407201368
N            4.81268578095428        0.13150286689003       -2.00123524291865
N            5.85239988123065       -0.57082501528292       -1.46226622191494
C            5.47705471720335       -0.97088191247390       -0.29065537623859
C            6.25505637064775       -1.76422097754036        0.68904390847134
O            4.22049534720688       -0.57878831187908        0.00886478122568
N           -1.92570921855949        0.28199284998859       -0.03221066212042
C           -2.50688527686892        1.32026773000591        0.81257329247664
H           -5.21712163378576       -0.86094617310788        3.12478918897561
H           -6.14021499667843       -1.04564319453077        1.60788876905385
H           -5.12934887221524       -2.38741509731800        2.20346288402735
H           -4.24920986197112       -1.99294241653010       -2.01500802988056
H            0.64694882319316       -0.50834317150299       -1.72382044781206
H            1.42576296723502        3.01494134520990       -0.10914788947004
H            0.27757423935024        2.57496056743532       -1.38584160093621
H           -0.30688286133519        3.13518294294793        0.18809530765183
H           -0.37265469920136        1.74368768589923        2.12858771858257
H            1.35786022801495        1.45131700281371        2.14199334184409
H            0.23712136503416        0.08086709622526        2.11399461852514
H            2.18002393924475       -0.03393097616972        0.64936482965080
H            5.70193274634168       -2.66015688856636        0.97134222955610
H            6.42717310869453       -1.17739375193719        1.59172812463520
H            7.21165985541398       -2.04700927949610        0.25540033440131
H           -3.54441626953780        1.46263238905892        0.51325707101042
H           -2.48086542079210        1.02470871824972        1.86058694013461
H           -1.97854898844002        2.25961780772389        0.68074455495988
