42
 energy: -83.614013556798 gnorm: 0.000506849392 xtb: 6.5.1 (579679a)
C           -5.26897058621278        0.67145963037041        2.20875815893678
O           -4.05282547177446        0.40380579841873        1.54910557178808
C           -4.09144529633438        0.56927805384823        0.13868547500038
O           -5.18074434492221        0.91186770227859       -0.36676540383795
C           -2.87672507000640        0.27742324425128       -0.48660054964825
N           -1.82038759399098       -0.06432115175189        0.33042149179627
C           -0.73785861731813       -0.55292221924634       -0.15140578572502
C            0.45466975569638       -0.85256859433337        0.73266002347221
C            0.27115638027835       -0.15997953395313        2.08727062397691
C            0.63072854080373       -2.36818692187481        0.92450552634488
N            1.64225578483958       -0.31210088862840        0.04786667575996
C            2.88985544219039       -0.33532867236873        0.54560003147289
O            3.22364717454934       -0.80673079137212        1.62841431933233
C            3.84405374366139        0.31610491403222       -0.38392383277019
N            3.54026417528231        0.90022272707374       -1.50903396145656
N            4.70741391377311        1.37937622892390       -2.03165761262074
C            5.64508956492745        1.06035018634262       -1.19696618201810
C            7.09189256698811        1.35005265087499       -1.31229138607574
O            5.17084561836734        0.38957309355101       -0.13341226744098
N           -0.60467598975609       -0.89750659704685       -1.51677996503063
C           -1.65359248643066       -0.69701070831097       -2.37926766451057
O           -1.72982120686654       -1.37712893003050       -3.40871431437885
C           -2.57403910088788        0.51027192334534       -2.00094816800807
C           -3.87250960103501        0.35918964415617       -2.85764401579135
O           -1.90125310463810        1.64295387253412       -2.26208781352545
H           -5.10862167466186        0.49982616659105        3.27497377141610
H           -5.59182109349526        1.71080992629962        2.05983155152092
H           -6.07272414578873        0.01004764388940        1.85883082948762
H           -0.67271509982899       -0.48544960551481        2.52421950338472
H            1.08316318842179       -0.41127631376476        2.76618122854929
H            0.23763603078096        0.92137036611867        1.95426910917459
H           -0.27847144825580       -2.78589925002094        1.35471587290012
H            1.46508498141617       -2.57595200883480        1.59234045632074
H            0.82245459682037       -2.84910051555475       -0.03314142217201
H            1.51531659818419        0.05562843881653       -0.88824179001266
H            7.27363279483739        1.95824141927869       -2.19423517668842
H            7.44094654470681        1.87760769475182       -0.42565716818336
H            7.65411681022599        0.42036633912830       -1.39279765405896
H            0.01205383353965       -1.66082363928217       -1.74066082359672
H           -4.43371721134078       -0.53474085358930       -2.58414026288892
H           -3.59076620948499        0.29379782249486       -3.91016907893966
H           -4.50259068724782        1.23740270810757       -2.72487592125960
