12
 energy: -30.096560262529 gnorm: 0.000318825630 xtb: 6.5.1 (579679a)
C           -2.22256791787252        0.33917466563192        0.00794997698494
C           -0.86369982452659       -0.22874755541332       -0.10315240571994
N           -0.53240342055508       -1.44377199710557       -0.43753509540170
N            0.81653465723072       -1.50682073209147       -0.39973218583165
C            1.24066280250929       -0.32602436443150       -0.04442683550082
C            2.63511686747232        0.08554394429825        0.13243916927432
O            3.57020737849975       -0.64385221360768       -0.02880532649585
Cl           2.82332377702503        1.73690810849012        0.59905638056128
O            0.21117542715518        0.52284582063454        0.15568020213423
H           -2.30741731536671        1.22290808739872       -0.62345237624764
H           -2.41303984808548        0.64359976820902        1.03716328389914
H           -2.95789158348594       -0.40176453201302       -0.29518578765638
