46
 energy: -86.309181764941 gnorm: 0.000183903306 xtb: 6.5.1 (579679a)
C           -5.46613961560926        1.93479861496587        2.04972672681822
O           -4.29303072966093        1.22252042307996        1.61369265163040
C           -4.28209709852240        0.77911042035516        0.38628269738600
O           -5.18172635673880        0.92027688931352       -0.41897101585249
C           -3.01967390967760        0.05290336902984        0.01225913713854
C           -2.89684264659804       -0.47381678663533       -1.29859968119615
O           -3.80787287880299       -0.34193890665264       -2.19412637224094
C           -1.70775499060294       -1.29560763144136       -1.64421557382380
O           -1.59948913492191       -1.91122993766647       -2.68279631675444
N           -0.77146324651049       -1.35399273184713       -0.64217229486934
C            0.32439732431114       -2.28850479122556       -0.89639119426208
C           -0.84439344245361       -0.63957068172568        0.59263202074502
C           -0.36946497984287       -1.48765139217036        1.77605366990774
C            0.12071584816484        0.74800091904363        0.49000154402212
C           -0.40485023214606        1.61366506905624       -0.64294274149606
C            0.03266908301738        1.48061291334759        1.82412106864286
N            1.45962997665698        0.32143461386940        0.30267170297570
C            2.12648471894693        0.20757724247734       -0.89899733118741
O            1.61455813468509        0.31923332856434       -1.98916017981604
C            3.55044625850220       -0.07489162668084       -0.65533482259822
N            4.11420746090125       -0.19408246543207        0.51281521979810
N            5.42711221973806       -0.43761995998217        0.29047321430729
C            5.59128522463173       -0.45297892868130       -1.00289534604889
C            6.84544377226741       -0.68250451169119       -1.75000357230039
O            4.44048833048309       -0.22977969067756       -1.64974134294527
N           -2.06866004220013       -0.07457575787095        0.89557922054706
H           -5.29888718425997        2.18163185369314        3.09541596375989
H           -6.34434183630697        1.29735113963114        1.93506328240531
H           -5.58503145267408        2.83904672662666        1.45094610699234
H           -4.59599781905735        0.17361580685885       -1.84330783508620
H           -0.03094269526739       -3.30333563771585       -0.71146185287324
H            0.61902661769185       -2.19195344969311       -1.94179992451257
H            1.16215672094363       -2.06894109111587       -0.24530554048672
H            0.71160553061664       -1.59013632203176        1.79440441808383
H           -0.82352632853057       -2.47387792899389        1.69543281423290
H           -0.70454798169069       -1.02383331441944        2.70042557331455
H           -0.64385057144150        1.03672163265136       -1.53407410370842
H           -1.29816341436808        2.13969145041909       -0.31263923630326
H            0.35699467651128        2.34591575102116       -0.90672072476499
H           -1.00442353755354        1.69243361130385        2.07461635968689
H            0.48592420875035        0.90648409385679        2.62890609655230
H            0.57561647279154        2.42063292664597        1.72666528129129
H            2.02021964102952        0.17798412435461        1.13300105462641
H            7.04460635970965        0.16270110926060       -2.40907601238692
H            6.74952903994578       -1.57571399296580       -2.36789027730999
H            7.67005450513466       -0.80780749211056       -1.05221853204068
