20
 energy: -38.303431503796 gnorm: 0.000927560573 xtb: 6.5.1 (579679a)
C           -2.81740366472943       -1.82935178478878       -0.29884709111899
O           -1.95147178630636       -0.84535941049825       -0.83097703292185
C           -0.99453817185770       -0.36026675267095        0.11150295420693
O           -1.48786396569839        0.66444618484625        0.94135883601057
C           -1.67718906467067        1.93221425170955        0.32194895367153
C            0.33433449819869       -0.36679050404227       -0.28408088138839
N            0.92656447472529       -1.18907632636344       -1.17080714107421
N            2.28917559378359       -0.98487189648530       -1.03160849534960
C            2.46243239250831       -0.10194040907536       -0.11513647611052
C            3.75257115713851        0.44422856855088        0.38540819870797
O            1.28549688885361        0.35169036375464        0.42270061341066
H           -3.43178702496509       -1.42269983415124        0.51604628536756
H           -2.25682617805000       -2.69219657261225        0.08758787673251
H           -3.47608485442074       -2.16353632798602       -1.10371143736808
H           -2.35988712596909        1.85997964164803       -0.53536263912279
H           -0.72264934895314        2.35587300055767       -0.02000869006495
H           -2.11536214711081        2.59918910148528        1.06853758678965
H            4.57622250777290       -0.08140731413665       -0.09323276004380
H            3.82912619240614        0.32065437775155        1.46621194666190
H            3.83513962734945        1.50922164250688        0.16247139300356
