42
 energy: -82.931918713367 gnorm: 0.000657470981 xtb: 6.5.1 (579679a)
C            5.03671772785248       -2.73911262942669       -0.12044326234199
C            3.79401049239339       -2.43181547108222        0.62083886784860
N            3.18596468759853       -3.17076074914973        1.49525746924801
N            2.08589470817767       -2.47342652464374        1.90173934984906
C            2.09079612116638       -1.35187540709618        1.25050339135648
C            1.10371466769777       -0.24089789561331        1.35005292321767
O            0.11867074667317       -0.34055038727724        2.07115732367920
N            1.45167940430202        0.81343567454608        0.59891521063118
C            0.70729782162205        2.06831955657083        0.42792299756486
C            0.11277623836526        2.54113858621627        1.76086306674889
C            1.70485982884087        3.10289245853983       -0.09894728537085
C           -0.42895584447301        1.86180121772421       -0.57285691638501
N           -1.06023250844984        0.70788801611070       -0.52518231944650
C           -2.11387747549338        0.54885833432060       -1.38468906594864
C           -2.84507192025203       -0.66727308603117       -1.37138362692567
O           -3.74531791168555       -1.05347107870134       -2.05670081932589
O           -2.35120293093295       -1.66969414505937       -0.33211575274826
C           -2.85785489328902       -3.00317349898538       -0.58904686581907
C           -2.48581235687398       -1.25608837921751        1.05907220433685
C           -2.47699713789164        1.55594133477238       -2.27573899527857
O           -3.48659946256623        1.46470090570517       -3.13699937484642
C           -1.70924852887934        2.82753662489241       -2.27205814802800
O           -1.98710214230906        3.75026929191551       -3.03981824815761
N           -0.69825777817898        2.88999897353341       -1.36627502449243
O            3.15350630849630       -1.26733079263758        0.42007233115288
H            5.44637528214507       -3.68462988325779        0.22749925685528
H            4.82627406324637       -2.80477307642015       -1.18841166218280
H            5.76631837349431       -1.94370026760104        0.03057037318294
H            2.27849453459592        0.71859842589756        0.03060167009771
H           -0.28678511272335        3.54660856189117        1.63265378052469
H            0.88262632627010        2.55971989118605        2.53075787684751
H           -0.69403432215316        1.88403243737616        2.07877040202329
H            2.50960120312623        3.24721604588353        0.61970364606208
H            1.19394905899184        4.05110583420752       -0.26117897289268
H            2.12771209459307        2.77156522844733       -1.04642155546190
H           -2.59912590184827       -3.24955688348555       -1.61623001127188
H           -2.35873457467195       -3.67091240233914        0.10804800889029
H           -3.93837571953076       -3.02284992067596       -0.44641862262892
H           -2.07473634836446       -0.25088474712377        1.13076543263853
H           -1.88598977622212       -1.94459157877430        1.65080833190515
H           -3.53501509708652       -1.28869238352945        1.35105734793951
H           -3.95790994578625        0.61443578839872       -3.09410573304810
