46
 energy: -87.028988306312 gnorm: 0.000574412720 xtb: 6.5.1 (579679a)
C           -6.09514701063316       -1.34580620158318        1.49680181809607
O           -4.92558945097120       -1.08918040982811        0.73620920361740
C           -3.77541380771303       -0.82423231249278        1.50072579997875
O           -3.87076330595427       -0.83115391827351        2.73797992614566
C           -2.63064325945874       -0.54003712016767        0.73892293907453
C           -2.46490748557480       -0.64322622568511       -0.70248052126169
O           -3.41899549201262       -1.25170227256541       -1.48990356996651
C           -1.30233276494597       -0.26453697511887       -1.27115741388281
O           -0.95135369162543       -0.48461433653097       -2.60244975139957
C           -1.75206740322705        0.14869185204278       -3.58951052398416
N           -0.25619492037080        0.38737722511105       -0.51376018865677
C           -0.25091936380552        1.84743118230268       -0.76465874602103
C           -0.39189963311480        0.08282630059052        0.89526530658640
C            0.86787912336410        0.18604006333244        1.74580405249392
C            0.95013295256839       -1.04219994081909        2.66695920449858
C            0.83833871149200        1.47171124828830        2.58854297880492
N            2.02318722381894        0.19492631533911        0.84357892256127
C            3.29561862675045        0.28033017741645        1.24290161028673
O            3.68133178894604        0.39052375128074        2.40084512972848
C            4.26912298150889        0.21813127145864        0.11511838094004
N            5.56406958444834        0.24763298397672        0.19821887473203
N            6.04367477396934        0.13678054378228       -1.07476807395007
C            5.01221895505706        0.04610040001298       -1.85448379497788
C            5.00561787841141       -0.09397991546045       -3.32735884935443
O            3.85903043138010        0.09070880970684       -1.16627081048619
N           -1.46719863645210       -0.30011652003708        1.46036525716947
H           -5.97355358749905       -2.24280998372399        2.11565027949016
H           -6.91316393419917       -1.49969165989022        0.79324589187239
H           -6.33211285421650       -0.49791871167828        2.15016053046100
H           -4.23901614052535       -1.37598462675948       -0.98124388631969
H           -2.75675991805068       -0.28984077578892       -3.63663514618405
H           -1.25140755866044       -0.00170231061489       -4.54827036089870
H           -1.84548897382951        1.22556026226767       -3.40098430369992
H           -0.11452069544803        2.00716223702826       -1.83294307583902
H            0.58553926255367        2.29914623932285       -0.23346450855243
H           -1.18799274340514        2.31401739364314       -0.44255294340322
H            0.03396524823329       -1.10299256127645        3.25400415150218
H            1.80283735296570       -0.96592237202427        3.33968721443564
H            1.04618841903406       -1.94869185713688        2.07009477088035
H           -0.09634776615445        1.50510496962975        3.14737344769536
H            0.89513498700218        2.34827488140390        1.94587313921100
H            1.67247131422470        1.49609290368570        3.28845578542462
H            1.81771101588951        0.09543423907141       -0.14465617153645
H            4.52870212979764        0.77309743910994       -3.78405224882677
H            4.44347419328293       -0.98154734110158       -3.61687086902616
H            6.02754044314556       -0.17521534122967       -3.68896485744555
