47
 energy: -79.485365573502 gnorm: 0.000420386155 xtb: 6.5.1 (579679a)
C            4.72226668885363        2.37555896569866       -0.67834236167628
C            4.41283222221829        0.91505659976687       -1.10949657691073
C            3.47869284619438        0.23802416627913       -0.19123883568151
C            3.73459799836255       -0.99529136087482        0.34265859243886
C            2.76831188432259       -1.68540698410181        1.28437058507936
N            1.52465020246879       -0.96157413373054        1.40638647449253
C            0.47680413232545       -1.26423716895583        0.59757083130393
O            0.47881438851559       -2.23410335748581       -0.14177794502925
C           -0.68025621531290       -0.31775876390839        0.69748667175808
N           -1.89850598569079       -0.84119667628793        0.38156091154757
C           -2.97557532316420       -0.11709462505467        0.39609610747090
C           -4.26191503559563       -0.82550623095447       -0.01537612505045
C           -4.00905700826763       -2.34199803257836       -0.07215528130860
C           -4.69779082001102       -0.33082757264086       -1.40133436785069
N           -5.31843018866196       -0.55291487352567        0.95101205291631
N           -2.94274065739920        1.21699897755837        0.71183977576471
C           -4.11305626606331        2.09993066595124        0.71818550729616
C           -1.75200525604240        1.85239448427517        1.01383332259407
O           -1.68810623272351        3.05117386113839        1.27472121968591
C           -0.57743467743441        1.00554487392580        1.00589954068326
O            0.59008073920297        1.62850281454411        1.28708534400326
C            4.94680117877778       -1.64904715851568        0.03063102320565
C            5.88987098657833       -1.09020723393832       -0.82878204040356
C            5.63366601821856        0.14188129856756       -1.36968774988160
F            6.50559127513382        0.69599404720911       -2.17234707796473
H            5.39281258977168        2.82903912085159       -1.40500466971754
H            5.19157272588141        2.37158179725050        0.30243310890450
H            3.79392983063514        2.93876542768874       -0.63617393413801
H            3.89232284203813        1.02184801750940       -2.07843356769670
H            2.56716283914104        0.77336071856871        0.05434370530387
H            2.55015494598265       -2.68963925950495        0.90513865166611
H            3.23072069628524       -1.77522512936607        2.27043635747683
H            1.51974139210158       -0.13585452375557        1.97947146208842
H           -3.25775907238102       -2.57151753214449       -0.82666789755441
H           -4.93731840816673       -2.85239608529201       -0.32265827959285
H           -3.65693336875716       -2.69897305080903        0.89411867206723
H           -5.56053753367896       -0.90390870601402       -1.73796610733020
H           -3.88582349810170       -0.46466891190642       -2.11522047015460
H           -4.97132916426528        0.72160964292018       -1.37248923598419
H           -6.20014692040548       -0.91227354564652        0.61551337886973
H           -5.10538621748147       -0.97740085646383        1.84209997142059
H           -5.01350211260481        1.51910866507550        0.89824505450460
H           -4.17806871965803        2.61827723745650       -0.23873621442780
H           -3.97792693651457        2.83349283534295        1.51296145557355
H            0.38823039629712        2.56236074288612        1.49489002219811
H            5.15594519408977       -2.61401847646282        0.47951011821258
H            6.81403360499951       -1.60746471052279       -1.05576718016854
