42
 energy: -82.942630944068 gnorm: 0.000693961990 xtb: 6.5.1 (579679a)
C            6.20003426502057        2.47052119544343       -0.82672627631924
O            5.27799824559271        1.71240427001790       -0.04278483491393
C            4.30863456982941        1.08639944083378       -0.71173848390724
O            4.20063326278226        1.14367214336586       -1.91995640926797
C            3.37682138446031        0.31617414418005        0.15231288882333
N            2.35106956829575       -0.23333876642159       -0.52792193416518
C            1.44086339377724       -0.94417856097853        0.07735754950400
C            0.31468367971663       -1.54750895216263       -0.74479593914599
C            0.50959541535985       -1.18789385068315       -2.21806399497981
C            0.25798339476916       -3.06971913863118       -0.57566223377418
N           -0.95418441295499       -0.93003673803844       -0.32229676718247
C           -1.60655189252021       -1.17584015018532        0.82863232890250
O           -1.23704502390530       -1.91826592769647        1.72764387766809
C           -2.87306554405345       -0.41363012544529        0.93075404601938
N           -3.72234184973804       -0.45898938954175        1.96870303312936
N           -4.70248543681540        0.33171831063806        1.72986126471777
C           -4.50990771865001        0.95440034464676        0.44722371182088
C           -5.63692768844386        0.56812997776946       -0.51271541435698
C           -4.36795715687623        2.47033172774037        0.60585285166947
O           -3.27234147908441        0.40519803723201       -0.01691331188235
N            1.47325925533471       -1.15676251362089        1.41384244348621
C            2.44286433397196       -0.64484434942098        2.25757424290223
O            2.39139088657193       -0.85979707103004        3.45292347586090
C            3.52920467106369        0.16488876319537        1.57727126704385
O            4.44233866346236        0.63346945435562        2.25275286079642
H            6.92905971946199        2.88915078149833       -0.13558859588451
H            6.69567638122984        1.82515898454158       -1.55639023894367
H            5.67597649519585        3.27112857177103       -1.35459704631105
H            0.53772647798585       -0.10660098502633       -2.34303031045315
H            1.45133525924928       -1.60276938865854       -2.57375970224810
H           -0.30721276553463       -1.59743512526907       -2.80818632227853
H            1.17166594844200       -3.50608352770973       -0.97662706488212
H            0.16196206119110       -3.35264605454892        0.46995746897681
H           -0.59478964717586       -3.46171969007359       -1.12673978859400
H           -1.38026189986482       -0.28939112426789       -0.97244071790285
H           -6.58088830993507        0.94190516114529       -0.12403704718745
H           -5.67985408453103       -0.51519834858017       -0.60122172953776
H           -5.44059390340097        1.00509761350128       -1.48862850831745
H           -3.56795704775450        2.68566664333576        1.31138655998690
H           -5.30411787540148        2.88077816115379        0.97568373059038
H           -4.12836937083251        2.90794952778844       -0.36015691852855
H            0.72607677473432       -1.69149347617032        1.84863398909812
