43
 energy: -83.846518684896 gnorm: 0.000228097317 xtb: 6.5.1 (579679a)
C           -4.89189146044675        2.60076336245845       -1.80963812437860
O           -3.86316677790418        1.73655875183243       -1.33716350199101
C           -3.60946983038163        1.78769708290642       -0.01380639515253
O           -4.22949077838847        2.54740660972635        0.72986921263083
C           -2.56103708654459        0.88085313168028        0.42885517910533
N           -1.95230781206041        0.10763343818108       -0.52341963497175
C           -1.06030258622271       -0.75850982755162       -0.16077310418163
C           -0.29497987161486       -1.54055375862966       -1.19704902991580
C           -0.26108024141256       -3.04143563518626       -0.89377291026588
C           -0.90213820313854       -1.30991241018510       -2.58331429578646
N            1.08694985547394       -0.99974810208612       -1.23320160740122
C            1.80944574158877       -0.91747104923004       -0.00732879409535
O            2.18745303488512       -2.11024134772740        0.59319882057602
C            3.41316217634640       -2.67743191149427        0.13094943356364
C            2.40605799976299        0.28924019008706        0.30033117356089
N            2.10642821546174        1.46982678486967       -0.26290867950074
N            2.88302875088344        2.40658141292413        0.38478336937011
C            3.58053570587353        1.78829931598503        1.27247831971939
C            4.56888435690996        2.37230619542835        2.21516218470405
O            3.34180687016311        0.44405530963944        1.29756661927189
N           -0.65396455027713       -0.88122417105665        1.14383937310841
C           -1.18518050801519       -0.13516495520353        2.19748402066014
O           -0.77917742774574       -0.32478760249156        3.34638343173261
C           -2.19376036066302        0.79879010099154        1.77474468526436
O           -2.78983014445333        1.54202450637059        2.74311732282363
H           -4.63738250227192        3.64556975625721       -1.60992098113657
H           -4.97505028765763        2.43552661008215       -2.88255755683588
H           -5.84162281162487        2.36638300647305       -1.32099053470558
H           -1.26575644660013       -3.45529138099598       -0.97236171936200
H            0.38449659784376       -3.54004238602020       -1.61536190963043
H            0.12065614666441       -3.24233027301805        0.10482061466232
H           -1.91071542245809       -1.71948990540622       -2.62207810555751
H           -0.95440595989185       -0.24359557469789       -2.80270811055900
H           -0.28986101958281       -1.79900292678366       -3.33927578874171
H            1.06454796450640       -0.06769886468511       -1.65073860818933
H            3.37166168239283       -2.87175033114203       -0.94728633180160
H            4.25731232867004       -2.01103511924386        0.34427967290519
H            3.55103850051069       -3.61969619959782        0.66290154040978
H            5.55929934138192        1.95282404014162        2.03562934447056
H            4.29257339148227        2.15085588527829        3.24671828883580
H            4.60867499001169        3.45037678618402        2.07641365980390
H           -0.00698661803316       -1.61362589697642        1.39967700843165
H           -3.48445794338906        2.10646835191678        2.33769844853711
