42
 energy: -83.625869473393 gnorm: 0.000680091331 xtb: 6.5.1 (579679a)
C           -5.87187508333907       -0.54610124355262        0.93347845224479
O           -4.54781685494986       -0.45329153406344        0.44558305708321
C           -4.28351507471890        0.65160494686716       -0.34754416823786
O           -5.18885299126974        1.45203169843603       -0.57138219440302
C           -2.90664641175003        0.69116346576624       -0.80974124789623
C           -2.46599715590543        1.76664949741463       -1.63691125409886
O           -3.16112429837274        2.76600764517583       -1.98367494200578
C           -1.05905047670330        1.65169485560350       -2.13869679789812
O           -0.54594966003769        2.42403349140585       -2.96380452464703
N           -0.32788865829965        0.60176098620685       -1.66914410251660
C           -0.76121626349429       -0.37494036790413       -0.68073879922623
C           -0.33362631617932       -1.76326780353703       -1.19963911363949
C           -0.01101279942900       -0.04325185838321        0.72084171755144
C           -0.60680997331374       -0.90906185053710        1.83410735424894
C           -0.25804815095775        1.43161493272684        1.06622400268292
N            1.42114990645014       -0.20566219439786        0.60335508243167
C            2.15627206420782       -1.35579767861791        0.71619050165672
O            1.68788957291956       -2.47407659905631        1.01487855615534
C            3.56647323704990       -1.15664730906439        0.46194730515096
N            4.53196221991186       -2.06011095170299        0.52364757746249
N            5.69917558094538       -1.40495549516088        0.23402901369790
C            5.40011713409170       -0.16690117003760        0.01617219188440
C            6.32859303966815        0.93593132618353       -0.33137841278325
O            4.07538722970680        0.07942128522333        0.13925978611839
N           -2.14897578720722       -0.38437559496546       -0.44352041587026
H           -6.59765679854321       -0.56206306007474        0.11186062043352
H           -6.11088835446639        0.29791145427668        1.59097247848608
H           -5.94536357917880       -1.47567629245220        1.49823521233803
H            0.62694232622570        0.54385031586361       -1.98182656058120
H           -0.88687023552550       -1.97227468660953       -2.11498293522195
H            0.73062857663754       -1.78728425655494       -1.42204380224211
H           -0.56805680040048       -2.53292424460131       -0.46806574196439
H           -0.49781893075735       -1.97250793020043        1.63354136368077
H           -1.67162332656407       -0.68417977832779        1.91433090948415
H           -0.12287447429503       -0.68420405786700        2.78476206209442
H           -1.32886517452085        1.63152883183586        1.10931801007749
H            0.19202542159242        2.08491585728836        0.31922237603165
H            0.18027154401400        1.66484394456906        2.03605434912780
H            1.93057097318094        0.61344231356567        0.30961467939231
H            7.33999290274564        0.54591964568881       -0.41452374585604
H            6.03771474699230        1.39281592227243       -1.27737995033584
H            6.30325815384171        1.70818454130225        0.43737104991210
