42
 energy: -82.954758798261 gnorm: 0.000758159239 xtb: 6.5.1 (579679a)
C            5.83693636169620        1.18271269034266       -1.41903721207524
O            4.57393502315641        0.75934551203334       -0.90893284213995
C            4.46430338905832       -0.55054804705193       -0.61231917003161
O            5.38116069843919       -1.32649863311957       -0.78091224855685
C            3.13219186735952       -0.88692452319343       -0.06954821593267
N            2.25266638512870        0.14145781310241        0.01523673033850
C            1.06681469840644       -0.04633922391278        0.50223926303166
C            0.09109683373912        1.09658995569071        0.61156484290417
C            0.55200112630270        2.28496673437964       -0.23254612662153
C           -0.09700147645276        1.49164171591163        2.07868522106644
N           -1.22078499200366        0.62110606803730        0.12369259024117
C           -1.30379030287361       -0.01840172587456       -1.03800207932757
O           -0.37375769606506       -0.35960010993925       -1.73013406376800
C           -2.77637464769194       -0.37467773213458       -1.48330677205700
C           -3.03020276094199        0.26904051902389       -2.84483354769217
N           -2.87010642176355       -1.79393284915886       -1.49273011281317
N           -3.74491031744907       -2.15780059954264       -0.60888935061983
C           -4.24896797557452       -1.06568867383608       -0.03938249987808
C           -5.27153699964096       -1.02605269512518        1.01376329100656
O           -3.71854845445112        0.04062836218331       -0.51932192239566
N            0.66329852569243       -1.25555792076884        0.99137011354552
C            1.42784116275065       -2.40256426036520        0.94199511367052
O            0.98393395480371       -3.45434295757794        1.36845295469251
C            2.80720841890949       -2.22608309530116        0.33824071319617
O            3.55073444149655       -3.20303193935549        0.24238322817486
H            5.74061042398244        2.24002347226363       -1.65584570170489
H            6.61692628082665        1.03572408921151       -0.66737474432295
H            6.09533995138926        0.61712163487920       -2.31865969612597
H            0.67360932919260        1.98013530440540       -1.27116416561422
H            1.50848357225708        2.64439242041226        0.14395850403203
H           -0.18231598563014        3.08486206360752       -0.17550291386361
H           -0.81346805631558        2.30693715936093        2.15138376203113
H            0.85444744412332        1.81866113445493        2.49509560922811
H           -0.46653263030776        0.64488555896080        2.65397658556857
H           -2.04685707123035        0.96521185532408        0.57975575316223
H           -3.00934509094751        1.35047173279933       -2.73895454097181
H           -4.00612895407588       -0.04219450734317       -3.20921915580034
H           -2.25242088597506       -0.05223368187078       -3.53486579747507
H           -4.86479914507169       -0.54310496671466        1.90289768389527
H           -6.11671735498688       -0.42298802915123        0.67890169076596
H           -5.60245595363740       -2.03248540654331        1.25750811555454
H           -0.25651571563969       -1.33486221849651        1.39309511369135
