43
 energy: -83.864461178550 gnorm: 0.000611012912 xtb: 6.5.1 (579679a)
C           -6.67113133250744        1.19404549898857        0.13677901824675
O           -5.40986870259515        0.88055765185597        0.73053688328874
C           -4.45322460633439        0.43536399690902       -0.13008901102866
O           -4.67948236830997        0.31568505361925       -1.32253853450507
C           -3.17292636113276        0.13443061866242        0.51034015350035
N           -2.21154765137677       -0.29584586205987       -0.38241615444506
C           -1.03433051665267       -0.59484905297722        0.03912361365340
C            0.02406362943033       -1.09328070431751       -0.92390201339523
C           -0.42097634326402       -0.84413007057371       -2.36931143364981
C            0.24831107924845       -2.59331410522127       -0.67556669634229
N            1.24916357627477       -0.35247484738911       -0.63681442966575
C            2.41356146892480       -0.51627353204273       -1.28506939418269
O            2.66870298858692       -1.41445719023452       -2.07509333903841
C            3.43922527210995        0.60574985495404       -0.90095316725364
C            4.08093507258786        1.13422439818441       -2.19130091028758
N            2.76461902783347        1.64788541785190       -0.14823906023834
N            3.34721622546272        1.66339410695229        1.08509104437660
C            4.27487351033581        0.77492011566844        1.13365653240245
C            5.15923417488436        0.45779014367964        2.28550843682108
O            4.42974565672588        0.05818547289811       -0.03517275813351
N           -0.68255094841117       -0.50100729693524        1.35652795905374
C           -1.55769793180788       -0.08889030986741        2.35848589584463
O           -1.17380658000431       -0.04001074773587        3.52543567648148
C           -2.87524631381007        0.24458550123192        1.86579264073634
O           -3.74839669349158        0.64956574598737        2.81870726189359
H           -6.55417161634789        1.99247395092279       -0.60108861451949
H           -7.32650200504895        1.52169860279144        0.94061558494271
H           -7.08914796396106        0.31021707546999       -0.35267445467632
H           -1.36237842759627       -1.35926458861100       -2.55345944037622
H            0.33292167975819       -1.21798232209506       -3.05990367604466
H           -0.56615658024921        0.22220366777426       -2.53739888421143
H            0.97291238186315       -2.98663139166324       -1.38641949698322
H            0.61989313593797       -2.75496232194326        0.33504198108158
H           -0.69342408480302       -3.12663534206957       -0.79637050156146
H            1.18882955213553        0.54688648100365       -0.14408346722399
H            4.50907996436942        0.30824577203385       -2.75735436438729
H            4.86360427565548        1.84636180653548       -1.93924071166387
H            3.32172352225050        1.63215749185619       -2.79119066850895
H            4.92229392809698        1.11879074419147        3.11649512142665
H            6.20710287053924        0.58825937363411        2.01128342570028
H            5.02406667116883       -0.57775062200754        2.60242036117088
H            0.24448428005764       -0.77280469091522        1.65024172860173
H           -4.62359391653954        0.84688345500367        2.44611786310492
