38
 energy: -79.622754592184 gnorm: 0.000455370659 xtb: 6.5.1 (579679a)
C           -6.39168684059598       -1.06081494458707        0.26754002359568
O           -5.15571084548204       -0.87502489611575       -0.40686826522251
C           -4.15764375418843       -0.32221385489454        0.32808912613808
O           -4.34550158091146       -0.01058044585513        1.49882734944620
C           -2.90245209590742       -0.14633426677113       -0.38687003123821
N           -1.91480643963820        0.41961552648250        0.39876030185956
C           -0.74923932633584        0.64615092368879       -0.07747534802502
C            0.31074384894757        1.32513265394794        0.76464489470755
C            0.48250136401992        2.77016550823160        0.27118633470926
C           -0.09778753758418        1.29016420145775        2.24045884055738
N            1.57223913382727        0.58775722049803        0.58185569970736
C            2.73189589843647        0.95162606618282        1.15647896187669
O            2.90116968741266        1.93124775354770        1.86674632719234
C            3.85074343127417        0.02437631090413        0.83684188885061
N            5.08068660448884        0.10497264185767        1.24113087086503
N            5.74326966381925       -0.95799149122388        0.70166825122860
C            4.87672312138943       -1.62151016633076        0.00200871216380
C            5.09932860481832       -2.85832205499380       -0.77807097204152
O            3.65984959780111       -1.05389875133425        0.04576039390718
N           -0.42582916332229        0.35440222906641       -1.38954132590896
C           -1.30599760008325       -0.20553702850598       -2.28153438974736
O           -0.94491561796331       -0.42994108545581       -3.43375658099059
C           -2.69095276811334       -0.49792767861355       -1.74600838261364
O           -3.52693960660003       -1.00689591654590       -2.51461283158673
H           -7.07720264459926       -1.52179412680193       -0.44256803209052
H           -6.26492337695870       -1.71405407797867        1.13660637881144
H           -6.79768682025203       -0.10168960303724        0.60444950220094
H            1.19526400390973        3.30703681377773        0.89380423077788
H           -0.47908585554716        3.28000494437557        0.31448696274951
H            0.83886249377472        2.77256237408943       -0.75745766455527
H           -0.16369211243299        0.25793841879859        2.58197795018438
H           -1.07438006574356        1.75966417305992        2.35351274893198
H            0.62950665365382        1.82413699297484        2.84850681323354
H            1.54841083010300       -0.27428167267774        0.06156892023319
H            4.79441055497672       -2.70627073469218       -1.81300025055750
H            4.50170852812710       -3.67138295203249       -0.36587915935743
H            6.15189315386614       -3.12785245199999       -0.74174993943455
H            0.49722287761272        0.55736344750239       -1.73365331056320
