42
 energy: -83.595144088773 gnorm: 0.000708266367 xtb: 6.5.1 (579679a)
C           -5.29937119554933        2.20687649157878       -1.59222096059660
O           -4.03023113170566        1.64741876080908       -1.33845870368935
C           -3.80818587327492        1.26875003389442        0.00644702974229
O           -4.72019252777311        1.47584898425582        0.82347997508929
C           -2.52937366758482        0.70589822132814        0.21045722523180
C           -2.06035530798434        0.21725170484958        1.52685073254116
O           -2.78547316077363        0.22976181701767        2.56643375546772
C           -0.75466501794256       -0.29386756237305        1.51705637595857
O           -0.10687201922740       -0.78163665747687        2.65088428190412
C           -0.14316102781840       -2.19168396099286        2.81762935384154
N            0.05664657653793       -0.28200624603698        0.35977518755304
C           -0.53444841057103        0.11134717266227       -0.83555386737257
C            0.39208516626440        0.05530121525786       -2.03760352260358
C            0.36938090491225       -1.34814781207233       -2.65309403138825
C           -0.01730688852828        1.10203657423328       -3.07787894378224
N            1.76737104472447        0.32025904076705       -1.57074826000973
C            1.84722262200675        1.23196480921076       -0.48333292994163
O            1.28849830628346        2.34940993128099       -0.52741702743918
C            2.71113232428697        0.81539033500885        0.58031592123549
N            3.02310099404490        1.47820004997696        1.69011966539448
N            3.82151330947515        0.64341911319949        2.42958405648720
C            3.95747431925034       -0.45235063095292        1.76241974153835
C            4.74524604666209       -1.64952758793488        2.14504739445722
O            3.29122544834377       -0.43771124014065        0.58211001147163
N           -1.70594830749022        0.62024687540123       -0.90862149997056
H           -5.45802408897706        3.12893345681330       -1.01674449162999
H           -5.34779288570930        2.43960991180433       -2.65740123988690
H           -6.10575308168026        1.50448139528661       -1.34346795922789
H            0.34498785091323       -2.70559160653169        1.98057629958242
H            0.39630471191146       -2.42421099087120        3.73692689156882
H           -1.17464385005933       -2.55829870132449        2.90285967734239
H            0.74563640695102       -1.01592548152441        0.30239216204021
H            0.63925751177592       -2.09329864465665       -1.90554158970049
H            1.07571443741062       -1.41248044432219       -3.47969398495763
H           -0.62909082300540       -1.57480786743474       -3.02579516536299
H            0.62403058619945        1.02665428690675       -3.95478760719545
H           -1.05343839192409        0.93819708911172       -3.37524282305308
H            0.07542757001927        2.10353285647692       -2.65571033076136
H            2.25798249572963       -0.54172741905358       -1.37224173557722
H            5.16739019236447       -1.50748812993506        3.13704965871894
H            5.55324703297483       -1.81263096231484        1.43179089862668
H            4.11345279848347       -2.53739918116748        2.14300537838588
