42
 energy: -83.593926109140 gnorm: 0.000361381962 xtb: 6.5.1 (579679a)
C           -3.55125151135068        3.91034925425046        1.40098663484742
O           -3.53981199374491        2.55821158070055        1.00457601883214
C           -2.27554637475843        2.04840685931965        0.67300414229456
O           -1.29288650065001        2.82042236391190        0.75187799251753
C           -2.25058780197182        0.69633970077622        0.27815226400966
C           -3.42270299130173       -0.20096298579285        0.17263937391373
O           -4.60959971399537        0.15824162714681        0.45594767638107
C           -3.11814310178076       -1.48915446970288       -0.27486565654312
O           -4.04223992363179       -2.51022277487421       -0.50176328601533
C           -4.82648103173280       -2.89864801060992        0.61830594630399
N           -1.79412347246425       -1.88975249101427       -0.54534252291176
C           -0.77340293823695       -0.97982096962544       -0.43951562166541
C            0.62806108759657       -1.46852659470014       -0.78293600383827
C            0.67258298260615       -1.94932590839399       -2.24307210234495
C            1.01982880873956       -2.61472496771450        0.16914791376224
N            1.52071478738659       -0.33238664285378       -0.61592761273052
C            2.89588624421146       -0.43419718782127       -0.68339179298275
O            3.48863356374944       -1.41901396476503       -1.17550044164377
C            3.54537733963889        0.74062172860358       -0.17303018207272
N            2.94866940174737        1.80666331365401        0.35967423381296
N            3.94557917452032        2.66647578150622        0.72905481705128
C            5.06938630148544        2.10901939003226        0.41882981835562
C            6.42990795071261        2.66019479322461        0.63569727344455
O            4.91735546398500        0.89196441819875       -0.15585064320068
N           -0.96747134472808        0.22717512310340       -0.05047726500659
H           -3.17287919401484        4.56879350962335        0.60731699984073
H           -2.94170063494362        4.07366299977439        2.30004679804844
H           -4.58642804199303        4.17855262273571        1.62083676859174
H           -4.19488810588006       -3.23341690465210        1.45166282823116
H           -5.46640878467127       -2.07507081436177        0.96162854605369
H           -5.45511361975974       -3.73006258562101        0.29381819381330
H           -1.65076692391235       -2.82255590950403       -0.88401621651823
H           -0.02846961401939       -2.76872649281906       -2.39034833930978
H            0.40564249152498       -1.13130491839627       -2.91253618245777
H            1.67279163893022       -2.29977652180972       -2.49337127759637
H            1.01765571504597       -2.26174243729633        1.20031450256533
H            2.01236432482438       -2.98951575693834       -0.07618117045957
H            0.30823075612521       -3.43300465842140        0.07726280157098
H            1.13914437505989        0.42565990161542       -0.04837809631798
H            6.35368015752972        3.65180105771127        1.07555318531049
H            6.96998405668420        2.72520285283472       -0.30882927847211
H            6.99942799743493        2.01415508896917        1.30424296254046
