43
 energy: -83.873299510364 gnorm: 0.000492015172 xtb: 6.5.1 (579679a)
C           -4.62286575496168        0.18705125358624        2.33981990145272
O           -3.51774161162497        0.21816900124160        1.44004487888064
C           -3.81279288134298        0.45549717375859        0.14714360288900
O           -4.95715471127385        0.63843024148168       -0.22682892300167
C           -2.60316463934549        0.32265340789127       -0.78787020000078
C           -2.84019440725013        1.17203417633527       -2.04402892951359
N           -1.39165130387838        0.79263625510281       -0.12183667172290
C           -0.64143068140959       -0.05173239294716        0.48528580243798
C            0.58183811313667        0.50792344474316        1.22031144258111
C            0.64994700520437       -0.00291652387505        2.66278688686890
C            0.51841997436275        2.03723603083236        1.22433348996364
N            1.80566388335738        0.15008796447426        0.48088951746723
C            2.40537658107420       -1.05126523606990        0.46322574495321
O            2.01628784513607       -2.06511310640499        1.02684405592044
C            3.65161518370485       -1.05516112336543       -0.34863775345026
N            4.42683576321507       -2.06620299258390       -0.59686972984481
N            5.44460070185833       -1.60053404429885       -1.37762528222939
C            5.22886367202615       -0.33584358087629       -1.55658626909817
C            6.05056486993072        0.62340847615587       -2.32659844615502
O            4.10966773269717        0.07449624829423       -0.93546335695988
N           -0.86319941842010       -1.38482544304359        0.54702145356656
C           -1.73211660248829       -2.02263712910714       -0.42877875083610
O           -1.61473637815981       -3.27044939492402       -0.58889570340607
C           -2.54684786139192       -1.15230008730302       -1.08455745897937
O           -3.43010657941685       -1.61594472390627       -2.09199427867237
H           -5.33212174997882       -0.59531638371163        2.05340115470848
H           -5.13961340278713        1.15087098770785        2.34084061139514
H           -4.22201748657498       -0.01813461081171        3.33092816932850
H           -2.89112505216394        2.22637862173623       -1.77436287370744
H           -3.77375200696773        0.87926465334061       -2.52339577731789
H           -2.01749213282073        1.02693121227088       -2.74245757580497
H            1.54949559918915        0.37660831033704        3.14490316054375
H            0.66235277321304       -1.08961081339039        2.70781794232847
H           -0.22100383699887        0.35904176092073        3.20778895081071
H            0.47701258904408        2.41601532822702        0.20393767672812
H           -0.37821675102870        2.36530830519435        1.74827665812535
H            1.39344378613770        2.44822480533877        1.72432669856193
H            2.25719749259189        0.90102322127304       -0.01398929590983
H            6.93907057467727        0.12351612474024       -2.70426068579089
H            6.34234563400370        1.45735837798991       -1.68933145863274
H            5.47549554612405        1.02359348362274       -3.16155528439498
H           -0.14033536062254       -1.98288201241966        0.92338921266601
H           -3.29641470978109       -2.57288826756673       -2.15148030674244
