42
 energy: -82.990940757296 gnorm: 0.000642685683 xtb: 6.5.1 (579679a)
C           -3.04137253499151        2.35817511059324        2.54472158147417
O           -2.50093360202039        1.33762599815847        1.69971874498361
C           -3.37913533356735        0.40181112792817        1.27392762171671
O           -4.54533139465046        0.43660445437160        1.59729828729616
C           -2.76556640164219       -0.67257847693590        0.47595466037209
C           -3.36030655388212       -1.96388839075968        0.54451982988156
O           -4.43660117956046       -2.23344283574373        1.07692604960873
C           -2.54421061649635       -3.08266497466074       -0.05060069257896
O           -2.87572438885342       -4.24848803707638       -0.10384120325357
N           -1.29450706903034       -2.70868181555811       -0.52850722724601
C           -0.82047970859086       -1.44921486833643       -0.66603731728186
C            0.50719393533237       -1.31373184068945       -1.40694118141906
C            1.38895328555475       -2.55730766812905       -1.19885345847075
C            0.21364660048252       -1.13733873530729       -2.90482305052756
N            1.24750153491105       -0.18977443872627       -0.82678258173771
C            2.23421818859830        0.48787972452055       -1.47445681840808
O            2.45073507171521        0.46587865330265       -2.67011096312032
C            3.03354679070100        1.32674119802544       -0.55018345029124
N            4.02782394278195        2.10186127585503       -0.85389199389103
N            4.47734152229481        2.64092290974773        0.31150935733014
C            3.73190846093768        2.16163575720364        1.25863328767626
C            3.82665628183129        2.43473271472933        2.70864525992811
O            2.79631213948626        1.32360395066645        0.78039324692693
N           -1.56616106588188       -0.45832235302298       -0.22184422584123
C           -1.22878803667899        0.93008737545526       -0.56375522019177
H           -3.39802964868034        1.92147769353943        3.48131935078886
H           -2.23284505395812        3.05872480841830        2.74020990605000
H           -3.86822416442627        2.86685201055761        2.04236173960441
H           -0.73986465417920       -3.47686640164627       -0.87287451563509
H            1.46388744664960       -2.80269350155932       -0.14144850243870
H            1.00368872913691       -3.41350170862118       -1.74877471323830
H            2.38548358228751       -2.33454904728672       -1.57679961821678
H           -0.55127946849533       -1.85527836258222       -3.19753484175253
H           -0.13832235827191       -0.13285284753655       -3.12793655178923
H            1.11268897189808       -1.32948289270527       -3.48598354188792
H            1.30807975228867       -0.20419774012333        0.18020937649766
H            2.90044832681372        2.88494528090545        3.06558301162195
H            3.97798752818918        1.50211184335407        3.25243623044478
H            4.65758010861283        3.11035515557682        2.89991747806391
H           -2.14875038485978        1.50311668580060       -0.64259135148962
H           -0.71950325369208        0.95398736830364       -1.52035317329750
H           -0.58974232809984        1.35572483999121        0.20588717373857
