47
 energy: -80.212090156907 gnorm: 0.000459596227 xtb: 6.5.1 (579679a)
C           -3.40684136440207        0.35758815290438       -2.30990477180316
N           -2.44866589537125       -0.41454650178326       -1.52957397566031
C           -2.00667509263773       -1.66245188834652       -2.16235843893249
O           -2.58800125068498       -2.02847976609077       -3.23346061980733
C           -1.02430863723444       -2.32715796058454       -1.50803269997916
O           -0.55934476886294       -3.56172704302470       -2.03981550752302
C           -0.34599476824118       -1.85961610234070       -0.25403655325165
C           -0.33489305623270       -2.94706334463812        0.84031863552693
C            1.11912590721022       -1.51945799829907       -0.61021132139816
O            2.01959789081936       -2.34859352925879       -0.67008816795753
N            1.30269869534130       -0.21848925285336       -0.97460120048931
C            2.65474039307575        0.29458798341909       -1.14635549104581
C            3.30646479246849        0.51210697910000        0.20237509247837
C            4.13303041906163       -0.46636290760463        0.74989013768714
C            4.70714790050743       -0.28777500545628        2.00078391044446
C            4.42927064795367        0.87987236865356        2.68781452034332
F            4.98417067677834        1.06291381919990        3.90003804331589
C            3.60680069693394        1.86858172187939        2.17954063794965
C            3.04355474075498        1.67306641027122        0.92612931362569
N           -0.97633334796445       -0.65803894888459        0.27963211001976
C           -1.91799498015836       -0.02992407971569       -0.34351439563263
C           -2.39201441872076        1.24597106692259        0.37110425539459
C           -1.89785311739525        2.48404257312221       -0.38909868699439
C           -1.80830337145050        1.28570724286972        1.79474316330061
N           -3.85433662518802        1.28571991568259        0.45791319217634
H           -4.09720752932227        0.89652926956197       -1.66448737876547
H           -2.89033714104603        1.06832718519451       -2.96366719331153
H           -3.97860511377469       -0.33203045220613       -2.93713339207215
H           -1.10915070522182       -3.72964734161940       -2.82104936969464
H            0.22850565656283       -3.81358119963689        0.49332045997627
H           -1.35605299456751       -3.25078340380899        1.06721903241429
H            0.12671048823473       -2.55749809005212        1.74741215581126
H            0.63768619250115        0.44226051127538       -0.58831891080773
H            3.22668345274458       -0.42902233950409       -1.73572425147177
H            2.59170353026189        1.23572727872348       -1.69823779865438
H            4.32779268234509       -1.37733234659553        0.19397322142246
H            5.35696901591895       -1.03523622651321        2.43720058785432
H            3.41460931435919        2.76737138357360        2.74995161999119
H            2.39579088830088        2.43522105363303        0.50854759839794
H           -0.81717886943249        2.42681276507193       -0.52266019629841
H           -2.36832072032958        2.56719516379480       -1.36678414440298
H           -2.12969341633831        3.38472390891637        0.17873387554041
H           -2.09447824859317        0.39099643179293        2.34688444338900
H           -2.18838834184189        2.16110635059402        2.31981998569922
H           -0.72044946761421        1.33771612178931        1.75708915218891
H           -4.17105077189444        0.59838305459476        1.13011493184907
H           -4.13057996762603        2.19228501628153        0.80605938915048
