16
 energy: -33.374506870346 gnorm: 0.000385373054 xtb: 6.5.1 (579679a)
C            2.35104038670803       -0.20553249085053        0.23766932113486
C            1.03387134904820       -0.68142746518355       -0.20513369612490
N            0.72902896747189       -1.76803074787003       -0.81279450655988
N           -0.61338642560813       -1.79976611952242       -1.02258791256293
C           -1.13588392017072       -0.73184190132282       -0.54482406869288
C           -2.55257621322062       -0.29305224868898       -0.51028269308709
O           -2.89128429959758        0.74834519394802       -0.03101264507834
Cl          -3.61625241236638       -1.41760011512307       -1.21198734628427
O           -0.12570409914092        0.06371430509942        0.01296593306154
C           -0.28273993579195        1.37280529233612        0.65505085990525
H            2.59434397519754        0.74357002757449       -0.24149483655821
H            3.09887695867490       -0.95090699044277       -0.02830062458312
H            2.35662994320290       -0.05176959023795        1.31740464586899
H           -0.69533463937056        2.05110424062157       -0.08845814221278
H            0.70699905495760        1.67982269229879        0.97631692909291
H           -0.95762968999429        1.24056691736367        1.49746878268079
