42
 energy: -83.602278325953 gnorm: 0.000472174413 xtb: 6.5.1 (579679a)
C           -2.99368096207036        2.52649770014276       -1.74870451349947
O           -2.43018877854087        1.40746363641726       -1.08014162056400
C           -2.97738101990145        1.09905911545521        0.12172858812048
O           -3.88451736176528        1.77209460087191        0.59373025922071
C           -2.47929306795386       -0.23573126349010        0.69959981598786
C           -2.64002291912311       -0.20560727173851        2.23189237545599
N           -1.09249787639355       -0.47729950030263        0.34965577760854
C           -0.85269965923644       -1.30016858358820       -0.64524595935612
C            0.62905076977869       -1.46818786381567       -1.02850780107612
C            1.06075640300471       -2.90773356562407       -0.70872702667048
C            0.79360205998545       -1.18309736680791       -2.52839879304438
N            1.40992397684329       -0.51846233414009       -0.24489248893168
C            2.74607981967219       -0.35023728859982       -0.31174709015371
O            3.50810280615405       -0.99861632643945       -1.04387073588657
C            3.20045808737761        0.71253212585187        0.58913070322109
N            2.44095354742603        1.44474212162149        1.37732767016055
N            3.27143577719783        2.32304437406458        2.01725493158115
C            4.47004611394451        2.08436898905530        1.59310031907881
C            5.71656914957557        2.78052669944792        1.99072422959814
O            4.51142361999902        1.08294213217174        0.69095843630747
N           -1.66920803293476       -2.04485815587800       -1.37490700519007
C           -3.02322369414322       -2.04688440939157       -1.01285686993199
O           -3.85139954426509       -2.83102854123626       -1.58157923233100
C           -3.40478149716372       -1.20334298489957        0.02892135468806
O           -4.74855151893103       -1.22170062671072        0.46052656512483
H           -2.47035790060225        2.63530785816728       -2.69784429984410
H           -4.06254260029280        2.37539523118142       -1.93069359303387
H           -2.86619072894499        3.43635842059875       -1.15337848658870
H           -3.66875321357997        0.03808780014146        2.49615782055401
H           -1.97354436764560        0.54124181586140        2.66336332537575
H           -2.38693722583349       -1.18182581159399        2.64358993399639
H            2.08127256126110       -3.09383552756809       -1.04179629062589
H            0.38695949351479       -3.59774810935534       -1.21817457466982
H            1.00219363111184       -3.08672127354089        0.36512620613288
H            0.56486430347984       -0.13769359024233       -2.73781780801049
H            1.80955732643010       -1.39517773159442       -2.85965091323543
H            0.09742250902246       -1.81334128704760       -3.08342794363455
H            0.86639522654986        0.04670043343713        0.40884741084715
H            6.42303835804834        2.07318801459803        2.42428153402921
H            6.18807575617687        3.23721990060469        1.12076791264012
H            5.48450782864272        3.55167496311310        2.72095045820780
H           -5.18691715587244       -1.86914551919879       -0.11842958165838
