46
 energy: -87.051276112468 gnorm: 0.000674677739 xtb: 6.5.1 (579679a)
C           -3.62834457346811        2.01037221711439        2.81566794002635
O           -3.75007793993520        1.16815478558140        1.67226112859672
C           -2.60426290678648        0.85488003206086        1.03272932726965
O           -1.52672296650377        1.29350945852542        1.39049916282859
C           -2.80825661182290       -0.21581842949080       -0.04872380058102
C           -4.13350189025938       -0.03084959247869       -0.79594834973332
N           -1.71018350396031       -0.13746284693408       -1.00003226913844
C           -0.60442573493796       -0.74980949484047       -0.76031394795495
C            0.50015675657286       -0.49944638449338       -1.79739666229896
C            0.01660010352033        0.54157411914498       -2.81849574531157
C            0.86119289584228       -1.79797161926961       -2.53268461566186
N            1.66567308685656        0.06308232769290       -1.09683295303854
C            2.84784679842726        0.30124231295044       -1.69022691465919
O            3.14668264732383        0.00230811576809       -2.83845868931415
C            3.82491248680410        0.96786899437446       -0.78840678566350
N            5.03361351856028        1.34335084300241       -1.07938947942537
N            5.55503209995770        1.90276076205657        0.05049457899905
C            4.63425632810580        1.83303646494804        0.96036419839345
C            4.71152356105846        2.30290302543288        2.36092655904653
O            3.51421142676748        1.25395820387508        0.49570230108824
N           -0.40342267304819       -1.57138707499903        0.30635029756790
C            0.82437343678804       -2.29873632550571        0.59992888302289
C           -1.57529353298121       -2.14893925211533        0.97659890268216
O           -1.40148233452217       -3.20258027045737        1.65469656822212
C           -2.74030923444145       -1.49059819345002        0.74003089974531
O           -3.95142217451450       -1.95217860508676        1.30734565017873
H           -3.26910647383348        3.00130097985078        2.52250560664236
H           -2.92985932315180        1.57852813954039        3.53877145075837
H           -4.62033702463942        2.09265481643664        3.25760888210484
H           -4.97214761150987       -0.09523488988747       -0.10459774370118
H           -4.15014842411424        0.93963558032178       -1.29082679312291
H           -4.23451198983776       -0.81138827044441       -1.54938145266137
H            0.80583500425497        0.74885411232078       -3.53936894453837
H           -0.25859171761487        1.46540388698914       -2.31156320245789
H           -0.85621117717442        0.15927658407363       -3.34495503934525
H            1.40762781814323       -1.57746336762034       -3.44813587065376
H           -0.05603778791133       -2.32466634480966       -2.79483460271397
H            1.47778351167820       -2.44810423780610       -1.91709917465865
H            1.50304232286739        0.47243181105741       -0.18821990054272
H            5.69184930745056        2.73467098327078        2.54586647108515
H            4.54511901441131        1.47033335747650        3.04412368836704
H            3.94239334585377        3.05224130644792        2.54740094653856
H            0.81546126610560       -3.28639170295874        0.12883577571752
H            1.69824199856667       -1.74344594802330        0.27182339312013
H            0.88528996156306       -2.43936099615359        1.68142550566880
H           -3.72406109051991       -2.73249737348740        1.83393281949607
