33
 energy: -58.519351170900 gnorm: 0.000781209019 xtb: 6.5.1 (579679a)
C            4.50616092469826       -1.88413849563730        0.93511083155038
O            3.50036489366032       -0.94949427808252        0.59332960567582
C            2.19560088447965       -1.51214594520605        0.46836611339314
O            2.06949307536147       -2.73800434545359        0.67586566357720
C            1.21020893853639       -0.58610609099133        0.15286411966607
C            1.38102554064876        0.83120648939038       -0.16313469915632
O            2.62126102467246        1.36087353605766       -0.46349418000815
C            0.29781977413162        1.61974238303881       -0.27765935790673
O            0.27418176923433        2.93672640667514       -0.71637230445534
C            0.89303025466499        3.89206760008748        0.13528871571611
N           -1.00564477091119        1.10822905832993        0.05900855888911
C           -1.09892625957958       -0.30220459663617       -0.09347614312892
C           -2.49470647715923       -0.86564276828115       -0.31719728412035
C           -3.46581846665686       -0.36598252659481        0.75976859518853
C           -3.00256792123941       -0.46767122583759       -1.71221350180388
N           -2.45005211664805       -2.32572074119857       -0.25461480689985
N           -0.10631201238646       -1.08740763473189       -0.00422124793575
H            4.28400508309904       -2.37566371159594        1.89115408941974
H            5.44603826666723       -1.33756160666081        1.02427635250627
H            4.61128963017934       -2.65727118575851        0.16303462199151
H            3.31512017933868        0.73451169436332       -0.18952211123146
H            1.97584662211732        3.72553142287290        0.19826467741982
H            0.46789393524086        3.86126633760202        1.14681923961185
H            0.70696419390923        4.87470576496431       -0.30090241973638
H           -1.73093028766215        1.62119260072543       -0.42750806613872
H           -3.55855018639386        0.71833694767718        0.71935436913132
H           -3.11075478576722       -0.64839082773110        1.75102814005808
H           -4.44992502973702       -0.80758273742833        0.60296799080146
H           -3.13299938313753        0.61140819040032       -1.78108888197595
H           -2.29091582460172       -0.78462629703214       -2.47482834486787
H           -3.96091958072229       -0.94922396188047       -1.90595141150238
H           -1.71448111651534       -2.64850859301031       -0.87867715562081
H           -2.18280177152254       -2.60245486243617        0.68436023189282
