33
 energy: -57.866952773890 gnorm: 0.000656563878 xtb: 6.5.1 (579679a)
C            4.35290406236038        1.79052198388860        0.21958858164638
O            3.07764862927026        1.14489261166610        0.12371068343571
C            3.08514755671834       -0.13428721092502       -0.24911280147492
O            4.09276472428467       -0.74936454369603       -0.50155021350744
C            1.70483150553210       -0.70128010103084       -0.31605475094640
C            1.41792612625706       -1.98270857552350       -0.69454525439159
O            2.32745051439298       -2.88842441417039       -1.04572863005202
C            0.03228204991027       -2.43824786750464       -0.72816719410927
O           -0.25737541743934       -3.58142914502752       -1.04915347088235
N           -0.92680147769584       -1.49005822512596       -0.38507055351996
C           -2.30691373266095       -1.97057091687004       -0.43219139661669
C           -0.55119096949911       -0.22718686545124        0.00678725300153
C           -1.53111502935908        0.88424100815788        0.36432500901028
C           -2.22966473923719        1.44671317219632       -0.87471673537113
C           -0.78355024672076        1.99970322727353        1.10018588978181
N           -2.59358527027093        0.40563497309192        1.32889192386791
N            0.68487065400783        0.14202034697104        0.03081857816108
H            4.84749671831201        1.78940860341359       -0.75525644071648
H            4.98209505446351        1.27210620721740        0.94780022211784
H            4.15818968626966        2.81041253857462        0.54496112090717
H            1.87564630363982       -3.72465251991041       -1.26678313001263
H           -2.19375442916584       -0.15296159436136        2.07563518762183
H           -2.32043370964562       -2.88014272323807       -1.03280789728029
H           -2.94952511126312       -1.22839969381482       -0.89250224221797
H           -2.64814435032094       -2.20406306347229        0.57407621354036
H           -2.87239324263708        2.27741172924210       -0.58834574248177
H           -2.83396197426723        0.69337007656943       -1.37396646716657
H           -1.47373514307681        1.80788417217032       -1.57159082859117
H           -0.30253029884768        1.60613550058948        1.99369413618610
H           -1.47946547297899        2.78775378047399        1.38060536385297
H           -0.01902683901625        2.41646107607910        0.44656041874422
H           -3.04628022014564        1.21061599810059        1.75046910030824
H           -3.31980691117165       -0.13150854555413        0.86943406716353
