42
 energy: -83.590858380123 gnorm: 0.000223386480 xtb: 6.5.1 (579679a)
C           -5.68206545823930       -2.39506847218313        0.73937007961393
O           -4.40277944934014       -1.80474236814026        0.58362904288721
C           -4.36555348103915       -0.44226401423544        0.64699916926796
O           -5.41473677961086        0.18927687506448        0.82538920713902
C           -3.04625861764224        0.13200519919786        0.49956026494500
C           -2.85361556619657        1.48909771238794        0.56147705581052
O           -3.87907428272547        2.36663184400590        0.72077133226717
C           -1.42793185707779        2.13962055109429        0.58253986908542
C           -1.41741855233874        3.21324365234089       -0.58392508219981
O           -1.13612856687472        2.64682160427843        1.76137241941260
N           -0.44160166576793        1.08630862908034        0.12266958993974
C           -0.80046898536665       -0.15918423915320        0.08305429915558
C            0.31803987924185       -1.16439599952901       -0.27549676396928
C            0.12497366563461       -1.63495224068725       -1.72414323022389
C            0.28906968660680       -2.35775976279925        0.68563895038088
N            1.57618854217349       -0.43551310042913       -0.14969039451896
C            2.79982442978972       -0.93057670715229       -0.30933035689474
O            3.08205367527140       -2.09379636129765       -0.59939488823368
C            3.84177519685896        0.10763060403717       -0.06701287616036
N            3.63328931744870        1.34388216423796        0.28256034558881
N            4.86121261974809        1.92772221540864        0.42424565546726
C            5.73723582044303        1.01369921791237        0.15497172413319
C            7.21158863116991        1.14650998583226        0.17264180836739
O            5.16477085091202       -0.15972846644033       -0.16313647136677
N           -1.98577276059460       -0.74799005382813        0.26681955842061
H           -6.37148023345429       -2.04337243036152       -0.03506354873711
H           -6.10629601345474       -2.15466218960789        1.72006608476698
H           -5.55255257763571       -3.47339396808961        0.65130376356954
H           -4.72903765959248        1.88062192710912        0.78260935013635
H           -1.67510427908822        2.75313964923686       -1.53801690856348
H           -0.41900194525388        3.64521195635161       -0.64983861242240
H           -2.13216549325553        4.00286316255241       -0.35335126308846
H            0.87244321708419       -2.37955920821227       -1.99780046667658
H           -0.86818499092120       -2.07378192770611       -1.82239158965871
H            0.20495835887535       -0.78857749264195       -2.40689103601796
H            0.53711138415601       -2.03422093299158        1.69732347059617
H            0.99387231653304       -3.13010087898948        0.37915719692872
H           -0.71829073532153       -2.77590106251611        0.68909153530731
H            1.43036427787856        0.56979440472582        0.02886323645325
H            7.62351567675458        0.89123839015983       -0.80282425386900
H            7.48262406703230        2.16832216848989        0.42522811796915
H            7.64061233716993        0.46589996348938        0.90747461499512
