43
 energy: -83.128234660649 gnorm: 0.000423718204 xtb: 6.5.1 (579679a)
C           -2.37700224562268        3.25632276612029        0.19877839636636
O           -2.41965004772092        1.81695645548741        0.02917763847152
C           -3.47869562762216        1.18287128260252        0.40492047576470
O           -4.50134744353748        1.59103769211304        0.84678871548153
C           -3.27440206192351       -0.42199546360574        0.19580430770474
C           -4.45355276401347       -1.11122899650938        0.88881950556147
N           -2.04416439485487       -0.71052112948686        0.85016107585645
C           -0.95728298090072       -0.86665001822103        0.19946640181598
C            0.31327707152328       -1.21851840419910        0.93874466505310
C            0.46454075359548       -2.74684915035345        0.86054821020855
C            0.23706654303292       -0.73641357867819        2.39045879464514
N            1.42206316243203       -0.55962066679368        0.24717113763867
C            2.71970487183840       -0.73314927683856        0.62861310079041
O            3.11723380129238       -1.56816460960897        1.41409901166182
C            3.59797584466856        0.23210517449795       -0.07148061159978
N            3.21116363612349        1.17502510985751       -0.87920362106828
N            4.33246949491339        1.83183959433954       -1.28028667182554
C            5.33479639112061        1.25002898385273       -0.68938370344609
C            6.76914456877703        1.59615106429381       -0.79532764623941
O            4.93291592590853        0.23429082154342        0.08706896149637
N           -0.87944483074733       -0.82165813065887       -1.18294763535777
C           -1.95308624428926       -0.65267530877967       -1.99362809675248
O           -1.93853255312191       -0.64006496590754       -3.20277785622201
C           -3.24418455023927       -0.52888539104266       -1.24994833845439
O           -4.31122534995138       -0.47189174172391       -1.94501899527305
H           -1.72575497833148        3.63091957488428       -0.58693608744998
H           -1.95912448105617        3.47513552922593        1.18118287361481
H           -3.38235389806882        3.66751022806012        0.10844560759103
H           -5.38640027289350       -0.79882507009032        0.42484200850477
H           -4.45402019735897       -0.83676973038591        1.94117490324244
H           -4.33509582347572       -2.18796546269275        0.79318600461226
H            1.32955212518972       -3.06639823290020        1.43835662233418
H            0.59014785902671       -3.05439426040969       -0.17553229863344
H           -0.42947364253765       -3.21649318653275        1.26700970800418
H            1.14775718879869       -1.01617258799217        2.91730156938111
H           -0.61942244786099       -1.19419295530322        2.88174142236633
H            0.12383266077384        0.34585358637509        2.41433689761778
H            1.21626313107987        0.28893863860387       -0.25802517090530
H            7.33965162744764        0.72500833066276       -1.11687134545074
H            7.14865063194660        1.90755289270408        0.17816786085407
H            6.89770441592236        2.40434038483588       -1.51129499098435
H            0.01793545218970       -0.95981146121466       -1.63187717349891
H           -4.13962732147432       -0.49257933013309       -2.91501963348246
