42
 energy: -83.004159075705 gnorm: 0.000461890339 xtb: 6.5.1 (579679a)
C           -5.33643899874696        0.43945045059859        2.15232843000708
O           -4.14161104369955        0.27634454081431        1.37562866763952
C           -4.12987478362510        0.83950223285034        0.17971577055876
O           -5.04849515130952        1.46034948695342       -0.29223229453423
C           -2.81983083319757        0.57336101832917       -0.54518003910836
N           -1.75142334883527        0.19288339191419        0.29751038410199
C           -0.69663326271840       -0.29658735472618       -0.22248520554580
C            0.48305675572177       -0.65534054330529        0.65684427061376
C            0.37165730418604        0.05264072961944        2.00994095630602
C            0.50154892462539       -2.18167296496342        0.83080298872232
N            1.69209051536696       -0.21190709556752       -0.04321030084791
C            2.93924892310966       -0.40804573529567        0.44382496204225
O            3.22093126254341       -1.06197624185792        1.43034663454934
C            3.94548783068937        0.28363899435298       -0.40106026396236
N            3.69291935720509        1.03349020582007       -1.43163821990718
N            4.89291667484438        1.47758538981988       -1.89779901744994
C            5.80201875311691        0.97154830493749       -1.11994929027693
C            7.26763212442221        1.15226581021124       -1.20659729094147
O            5.26559664079090        0.21025735060126       -0.15513169086991
N           -0.58176651307771       -0.62959878439940       -1.55748180686598
C           -1.65571355965258       -0.67642571905822       -2.41734797343247
O           -1.63384299581468       -1.34556087732801       -3.42738362981954
C           -2.83466319962470        0.14299419831324       -1.98578547984929
C           -4.10021267280602       -0.05642924439293       -2.78430467376907
O           -2.51062188105374        1.45039004689518       -1.58618414018945
H           -5.17553315921506       -0.09978599535588        3.08273471316144
H           -5.51039952840097        1.49934367828695        2.34853570704361
H           -6.18922482195597        0.02398317654843        1.61197732645690
H           -0.55776799802387       -0.24025624019771        2.49506421777999
H            1.21046758921182       -0.22619088743652        2.64448053860590
H            0.37053216136600        1.13211222449934        1.86755095258685
H           -0.45317014547961       -2.50880414693502        1.23936028405568
H            1.29798352911387       -2.47137321592651        1.51306901158621
H            0.66290504271158       -2.66695848616700       -0.12997096969616
H            1.58937405251199        0.42893969756117       -0.81638805451101
H            7.51015171641866        1.76775024111116       -2.06914581352378
H            7.63830357880162        1.63125277981975       -0.30070400182254
H            7.75625124387593        0.18292544965072       -1.29903064965800
H            0.22703356200941       -1.15935261652243       -1.84710014172267
H           -4.54502252845155       -1.01964627600508       -2.54090392605266
H           -3.85537603336142       -0.04525931478754       -3.84614484917085
H           -4.81048308359651        0.73816334072517       -2.56932409229067
