42
 energy: -83.006062607757 gnorm: 0.000495004686 xtb: 6.5.1 (579679a)
C           -5.98616990256611        0.55302410139606       -0.57398856433956
O           -4.89309581244279        0.26718883973905        0.31329123466760
C           -3.70200853413596        0.12207313022050       -0.22791888652656
C           -3.02550831704395        0.29858326920674        2.22905823032690
O           -3.45875156144341        0.19065314047120       -1.40307787847213
C           -2.61838955406984       -0.19754775729121        0.84161324485209
N           -1.42117857917674        0.48789421915010        0.41379995834332
C           -0.58202350752590       -0.07948013644968       -0.34976569393051
C            0.60778147296793        0.72116326773761       -0.86221506485581
C            0.57983169387801        2.11875891163014       -0.24144415279786
C            0.55452179360072        0.82762494490446       -2.39117563343522
N            1.86042163248594        0.09154127947163       -0.42317012667827
C            2.41284800516757       -1.02627205897247       -0.92980703280405
O            1.90845777485478       -1.75450965198574       -1.77404254946758
C            3.73647395079450       -1.32671790566379       -0.33434361669432
N            4.51763180099686       -2.32741902823388       -0.59819095242217
N            5.61947694494711       -2.18457609932363        0.18926002322918
C            5.44443284559349       -1.10518334012723        0.88649062940215
C            6.35410497462768       -0.51189217401191        1.88984166737708
O            4.27150910292966       -0.51472993907380        0.60356375813631
N           -0.68924708911288       -1.39232751689046       -0.77547709896126
C           -1.56743941819813       -2.29190590218178       -0.25958689107361
O           -1.58699966149349       -3.45772252505945       -0.58851180348806
C           -2.51631673162263       -1.71258143855892        0.79724232813241
O           -3.16440840772335       -2.42781157346737        1.51609220025870
H           -6.87691892389498        0.61081544753624        0.04711279302287
H           -6.08191110158487       -0.24418155540142       -1.31356940696877
H           -5.80948966530980        1.50354322475232       -1.08004439024085
H           -3.89742881747312       -0.25007902463908        2.58003332650869
H           -3.25598155408426        1.36034809482770        2.18723658763557
H           -2.19908301283012        0.14095564600119        2.91937954175207
H            1.43205167926435        2.69640344499792       -0.59316906156550
H            0.61590270996781        2.05009419960419        0.84441212644593
H           -0.33882301918438        2.62879847858227       -0.52597691785267
H            1.42472204419274        1.37798616325413       -2.74375089833698
H           -0.34766020616592        1.36600199733472       -2.67777216454994
H            0.54378911041903       -0.15285972914128       -2.86180018416897
H            2.38903256205715        0.60074385686564        0.26639240308926
H            6.65789339505939        0.48479558997704        1.57029063948960
H            7.23300278601932       -1.14116957319706        2.00815349408556
H            5.83951827784603       -0.41502912047709        2.84547826975593
H            0.01542581941064       -1.74751819752168       -1.41994348688147
