42
 energy: -82.886933478943 gnorm: 0.000504516460 xtb: 6.5.1 (579679a)
C            6.12148050256848       -0.88993741355127        2.42141208218074
O            5.07935768979361       -0.01776568299645        1.97424827789085
C            4.18018022902891       -0.54139023334496        1.15188085868758
O            4.20469702890312       -1.69193606388279        0.77585626352654
C            3.11640329287856        0.42381932168996        0.72905495287110
N            2.13089036845638       -0.14294654922901        0.03243328221048
C            1.08942141538308        0.55083013756117       -0.37033215297807
C            0.05337606518531       -0.13221418855538       -1.21611967651373
C            0.53621175255753        0.02163089456599       -2.67811185237142
C           -0.04861226997839       -1.62390485820794       -0.84476160859822
N           -1.21782413464671        0.51358601453346       -1.03148726770797
C           -2.43342524455147        0.07646742995219       -1.73939950834960
C           -3.15611381350163        1.41672628512117       -2.17882407144264
O           -2.29563088473137       -0.76102819506587       -2.69473062450463
C           -3.34408394010556       -0.43080255227782       -0.59408488757506
N           -4.10514436055196       -1.46804241143255       -0.60541740909283
N           -4.72625473790669       -1.48755599017474        0.61646117761122
C           -4.30512006478781       -0.46068560165480        1.27827459834543
C           -4.67634858953184       -0.04233099173873        2.64731520463435
O           -3.41765602093728        0.25987724414150        0.56072880799670
N            0.96384212479712        1.86626702195705       -0.09972176894968
C            1.91211498942450        2.61805036510499        0.58748946126315
O            1.74294950216010        3.80252136989302        0.76167260545468
C            3.13226950170200        1.83971725378463        1.05019618573751
O            4.02992393576593        2.42179565717855        1.63938088816024
H            5.69123638227712       -1.75704899573994        2.92760263083738
H            6.71712418234641       -1.22761537205256        1.57032455897872
H            6.73524264245158       -0.31367876475801        3.11055401723211
H           -0.13851699844720       -0.50428004726759       -3.34883090698851
H            1.53673481122259       -0.39682934701560       -2.77012377361106
H            0.55862992225443        1.07698414733843       -2.94069767817114
H            0.94171674259635       -2.07110785973092       -0.90893532197166
H           -0.42571499756927       -1.72139469335828        0.17133631061868
H           -0.72320503366571       -2.12891285056222       -1.53287640474552
H           -1.39031565367458        0.93989349537347       -0.13451342885505
H           -2.52763466801568        1.88210771283210       -2.93205642055426
H           -4.12013780391326        1.15154862081794       -2.60356178425345
H           -3.27794938113186        2.07193382887053       -1.32329715589254
H           -5.12685229346043        0.94986928750918        2.62294595929021
H           -3.78768537404907        0.00729870449128        3.27590184616146
H           -5.38216035710282       -0.75491915249683        3.06797062276860
H            0.15258154051710        2.37113602235366       -0.42515488933639
