42
 energy: -82.998263246466 gnorm: 0.000253367697 xtb: 6.5.1 (579679a)
C           -4.84914956392865        3.29379722938547        0.23547682272755
O           -4.39807517512535        1.95024048236030        0.02972330369063
C           -3.08736998053964        1.76617210507651       -0.03486894058158
O           -2.28450346878695        2.66615685699307        0.07776312401520
C           -2.72901442472042        0.33958168325330       -0.30284229208380
C           -3.51489851669814       -0.49341641682179       -1.04023471545925
O           -4.71247982206392       -0.15595997040490       -1.52746224372713
C           -3.05592547834621       -1.84743975948167       -1.38986939984919
O           -3.79910849503937       -2.59693635286262       -2.01415425969884
N           -1.78541804199132       -2.16528123818372       -1.00802223407555
C           -1.05272084273958       -1.35089666729453       -0.29849793936156
C            0.32876330456467       -1.90470541400777        0.04515256877463
C            0.72491799866476       -2.96620890145346       -0.99391805105685
C            0.27388416559723       -2.55076791395615        1.43818350168258
N            1.31257694526559       -0.82138150630362       -0.02714555390347
C            2.60543478623905       -0.95560553003790        0.35479238052364
O            3.07959449172338       -1.90106239247926        0.95457404136004
C            3.38627888471136        0.24603583243541       -0.03581050279936
N            2.93529594267220        1.26933915749656       -0.69789235549284
N            3.97950917301539        2.13072430481887       -0.84822716502465
C            5.00193918301018        1.57744871361150       -0.26816044849049
C            6.37569053632636        2.11361424579400       -0.15164459103360
O            4.69010643693882        0.38575112998677        0.26210656819962
N           -1.48536587111740       -0.13875868297749        0.12148219700935
C           -0.75227222479353        0.67786928206335        1.09475146824097
H           -4.40168051024304        3.70266705040793        1.14387267329283
H           -5.93155566472111        3.24484091665723        0.33351329407246
H           -4.57049731410582        3.91567071895706       -0.61809414426148
H           -5.05834432512163       -0.92816856905100       -2.02085225382323
H            1.72531602436140       -3.33141539119935       -0.76869132984800
H            0.71722732021804       -2.53356865033459       -1.99301117197222
H            0.02477551416896       -3.79871215473687       -0.96239043844861
H            0.17298514301699       -1.80464507771868        2.22255391284385
H            1.17789757285705       -3.12770950302746        1.62126469857113
H           -0.58468779785224       -3.21982742750330        1.47713361356453
H            1.10729878474944       -0.06016923262785       -0.65822507799882
H            6.63552497048060        2.24403942945454        0.89886516777011
H            6.44033284207081        3.07036137602924       -0.66387785514000
H            7.08687021322365        1.41386559370110       -0.59020037021720
H           -1.46167280070334        1.09489976417472        1.80633517538527
H           -0.22893955428415        1.48506722943226        0.58368901184510
H           -0.03854036095397        0.06449365037303        1.63094681077780
