42
 energy: -82.981193697726 gnorm: 0.000665148946 xtb: 6.5.1 (579679a)
C           -5.69857019248033        2.74042635992653        1.25728294127695
O           -4.49931630686172        2.23969933107737        0.66484082869952
C           -3.79673037471038        1.35897842653540        1.40181219842993
O           -4.15147699556001        0.99595273228206        2.50579859851891
C           -2.58992536781972        0.91288885219700        0.72380071525944
C           -2.14034840027031        1.27835671648947       -0.53319010080008
O           -2.45938221604638        1.94707767461408       -1.47716602360512
C           -0.65677465983399       -0.40227119584452       -1.84736484055589
C           -1.93785068543035       -1.02977354248994       -2.24640184615236
O            0.40428447318924       -0.49621922103899       -2.37838124494675
N           -0.75004691933191        0.46786095914000       -0.65226099823520
C           -0.72871502623479       -0.27210788305378        0.63891821323893
C            0.33869465722879       -1.27380200970759        0.97659097311191
C           -0.06659251327641       -2.65183177961349        0.42400648520047
C            0.48350033851538       -1.32442962760281        2.50448003627818
N            1.60224920506844       -0.84509442679022        0.37330610196349
C            2.74514431541294       -1.55892787271961        0.46939077740109
O            2.85823070853969       -2.64589465805139        1.00977389234523
C            3.89588151662890       -0.87117724558567       -0.16701705911084
N            5.11359455467369       -1.30267220850169       -0.27655982661706
N            5.82083296783293       -0.32782473716415       -0.91334228974160
C            4.99179251572469        0.64022261784829       -1.15238029348515
C            5.27290660515454        1.92902708299164       -1.82094986912188
O            3.75586443160782        0.35964610688229       -0.70684925563704
N           -1.74186117388514        0.00334807620820        1.34733079836780
H           -6.13160602456014        3.43851542589135        0.54296583901120
H           -5.47245297833974        3.25365897604186        2.19591220717146
H           -6.39555363619139        1.92119818897375        1.45369850682077
H           -2.50360020525918       -1.35723813275181       -1.37703251676245
H           -2.52714205163105       -0.27368065340977       -2.77072722226040
H           -1.74500938724962       -1.86054727668429       -2.92107740942581
H            0.00468726341192        1.14735467180092       -0.70704221164324
H           -1.07149107494136       -2.89506815335708        0.76459842252129
H           -0.05091836548316       -2.63920341394079       -0.66364403568942
H            0.62431174048784       -3.41451387796140        0.77875532906765
H           -0.47688033582772       -1.57998344935210        2.94948829212087
H            0.80204188190699       -0.35284659689415        2.87792275343251
H            1.22028831458385       -2.07604191130450        2.78138712106438
H            1.64844267000252        0.05904664902828       -0.06363715324800
H            4.94713256069066        2.75372546855493       -1.18825008463644
H            6.33881999905506        2.01485925597473       -2.01823902241046
H            4.72354117150346        1.98930630135967       -2.76054672721619
