42
 energy: -83.610534677925 gnorm: 0.000679666834 xtb: 6.5.1 (579679a)
C           -5.84512274812972        0.65473910792889        1.51241971884023
O           -4.77866039371818        0.87403903497301        0.61608130579078
C           -3.66817668492626        0.02907517819906        0.79644024514702
O           -3.72995772064166       -0.81399016023032        1.71876419167955
C           -2.58483393233939        0.25347418936428       -0.06842168116091
N           -1.56973564245920       -0.66399337907151        0.09070160672020
C           -0.46852558174921       -0.58940053146981       -0.56097296978929
C            0.57086768675317       -1.68570188979552       -0.46264262689082
C            0.15796654042978       -2.68776657570853        0.62122963694149
C            0.71339287284264       -2.38154026084337       -1.82660251594419
N            1.86521306454488       -1.06980899197182       -0.09560393650248
C            3.01298288498033       -1.75619250025042        0.04564742105374
O            3.14783442016200       -2.96772191871138       -0.11381119738184
C            4.16365014311258       -0.90190816217780        0.41875381980547
N            5.39114637766769       -1.28281108593371        0.63993650310167
N            6.10391783165048       -0.15777400625973        0.94217889856428
C            5.27511395792382        0.83654180282977        0.88796730046616
C            5.56401925804660        2.26729312472865        1.13360854189646
O            4.03126619649547        0.44044552830578        0.56370585292283
N           -0.17566118635746        0.48404251350051       -1.43006398434763
C           -1.04007123001217        1.54037951494009       -1.54929836232845
O           -0.60674235737220        2.61789040342088       -1.97534566475969
C           -2.55256935202253        1.20294608411914       -1.30895799383361
C           -3.24611206935379        2.57096763238909       -0.98256589582511
O           -3.01476500073638        0.63205620199519       -2.43407732816520
H           -6.63377029316713        1.36831446284319        1.26606322023589
H           -6.24393748534579       -0.36493317362594        1.42387816755371
H           -5.53423762085036        0.81101271403807        2.55395228579713
H           -0.82884372754962       -3.08605901775652        0.38500485477816
H            0.10690066923734       -2.18745153030771        1.58792731809509
H            0.86939234335879       -3.50905030068939        0.68047519383784
H           -0.25780332070866       -2.76889569228632       -2.13389562234606
H            1.41838296092729       -3.20890355709177       -1.77241360123741
H            1.06209720037507       -1.66932059305814       -2.57338989101601
H            1.87797306174827       -0.08438774804090        0.11419077833967
H            6.61995093597584        2.39106492675266        1.35845589372646
H            5.30772297870672        2.85733075740601        0.25420457142251
H            4.96960356082024        2.63248962803820        1.97087783571895
H            0.79052567545165        0.67236631276815       -1.63707144958085
H           -2.89050224427932        3.32871293228234       -1.68314428793930
H           -3.02758474951873        2.89849290963122        0.03453166131089
H           -4.32230727997013        2.47393511482181       -1.11140781469109
