42
 energy: -83.666537557162 gnorm: 0.000767442613 xtb: 6.5.1 (579679a)
C            2.81297437343026        3.20352900056765        1.68143446608604
O            2.62401792091297        2.02091334480114        0.92052366360140
C            3.66351005586026        1.68429311050619        0.09283339042760
O            4.65319025763090        2.40050120283926        0.03366229495946
C            3.43448062966763        0.44354361536323       -0.62474645131269
N            2.20358209594526       -0.15174144932605       -0.41046972112858
C            1.91295315155415       -1.27240163092300       -0.95859137735807
C            0.57322395278896       -1.94821138604150       -0.71267086065207
C            0.80845720543108       -3.21370465636538        0.12960954674582
C           -0.09177343320644       -2.31029534484212       -2.05411675149437
N           -0.24202120464238       -1.00091682846284        0.03414376568010
C           -1.60489240347787       -1.23956502185406        0.26986270030992
O           -2.07758909717784       -2.39464493415076        0.28287484624545
C           -2.31030129886784       -0.04169628115946        0.53787892393467
N           -1.79859392626611        1.17922679379541        0.48111533732729
N           -2.69416344269210        2.08228898838170        0.75807431557091
C           -3.95572597497816        1.37786704046384        1.03441788013950
C           -4.40882770892044        1.66843280243401        2.47641570391927
C           -5.03153749637918        1.82168423221498        0.02807611475372
O           -3.67579478232200       -0.00526662928065        0.87690944316294
N            2.81819535030891       -1.93339184860469       -1.76942149769454
C            4.06100377125527       -1.45226433013274       -2.08376687249190
O            4.79814991741842       -2.10449431578327       -2.82273161659818
C            4.42885016284989       -0.12378450892378       -1.46422597787060
O            5.54777023785357        0.36399608398118       -1.71385054874559
H            1.94326731167570        3.31550932387727        2.32845126021148
H            2.90205615015032        4.07850882473567        1.02894674977932
H            3.71763425612349        3.13098668224429        2.29424496173464
H            1.49090308262626       -3.88565455525024       -0.38798073045072
H            1.24133234188620       -2.94206910420463        1.09261634550271
H           -0.13335691258113       -3.73308035823079        0.29828495102093
H           -1.05914252708249       -2.77654245236260       -1.87377041178673
H           -0.23439506957867       -1.41360105878367       -2.65617654875882
H            0.52771249083695       -3.01163758719855       -2.60931794781040
H           -0.02474912729614       -0.02886012302230       -0.18049974120646
H           -3.63570701317788        1.34085541249097        3.16994536180044
H           -5.33240968310925        1.13603233945730        2.69668540436316
H           -4.56998969146892        2.73699944735645        2.60253281495560
H           -5.20298046499827        2.89197561937883        0.12169954853097
H           -5.96335877477753        1.29001752160239        0.21231069810476
H           -4.69114334950414        1.60276975690937       -0.98277962560373
H            2.57518766631037       -2.82033673849668       -2.17843180789770
