42
 energy: -82.967234895322 gnorm: 0.000699820424 xtb: 6.5.1 (579679a)
C           -3.37827058882767        3.63257783685179        0.35822831238076
O           -3.88640126174117        2.72242949320906       -0.63623881069820
C           -3.50982224666362        1.49473604446824       -0.65074863317249
C           -4.12072094452507        0.62309469207999       -1.67256288312766
O           -2.64128208436274        1.11912129336779        0.20681487041257
C           -2.26304703517672       -0.23243312199506        0.45351664034739
N           -0.93784859026791       -0.42475100446091        0.53047728434679
C           -0.55314847039634       -1.65838000652168        0.84642467661597
C            0.94036449259110       -1.91888807025438        0.96198309339671
C            1.29139778117487       -2.06440232064596        2.45081011419489
C            1.30280663899044       -3.19248191476858        0.18696298757936
N            1.64182704980496       -0.76976939905733        0.39175938223096
C            2.97603294979484       -0.65528514611659        0.32718270317893
O            3.78641295717255       -1.47007596674104        0.74174013425466
C            3.37633630929501        0.61550330922802       -0.34040445029101
N            2.57792578945390        1.50759194599896       -0.84475471557677
N            3.36627855951292        2.49067403999420       -1.36814689987598
C            4.59504298451056        2.13346562648553       -1.14958893969459
C            5.82712425957600        2.86150640827005       -1.52609254125432
O            4.66758113979057        0.95921367471716       -0.50527350352681
N           -1.33494559244703       -2.69065397537900        1.10669223455235
C           -2.68619490885640       -2.54687845108882        1.04184425894319
O           -3.50341080660961       -3.44897804507742        1.26569321260242
C           -3.17365061898885       -1.21429217272639        0.68081782585830
O           -4.52164166564782       -1.03823952256702        0.63653166453000
H           -2.31646688236381        3.80469685363501        0.18301985398866
H           -3.94563423775320        4.55191412586970        0.23660283253630
H           -3.52821335567599        3.20815692853790        1.35088130981057
H           -3.41998134336992       -0.15138887889474       -1.97923867523257
H           -4.45087869637063        1.22167247844903       -2.51782124183718
H           -4.99196509637492        0.13083306000370       -1.23184790345436
H            2.34266156021736       -2.32018825630624        2.57104010378580
H            1.08852747137974       -1.13026904479437        2.97276878923354
H            0.67818512372132       -2.85375673546191        2.88368984801412
H            1.10763293284471       -3.04865922295039       -0.87507491841096
H            2.35379669825914       -3.43933126252167        0.32688999973594
H            0.68875160271701       -4.01540999994473        0.55125006010947
H            1.05754853190188       -0.01944581111369        0.04052632368490
H            5.56474146205086        3.76108052490980       -2.07715951890798
H            6.46227807550227        2.22604662466450       -2.14286214830144
H            6.38782027233782        3.13333211155730       -0.63171402784174
H           -4.91755221619330       -1.89368974294118        0.90326729468778
