43
 energy: -83.119919520605 gnorm: 0.000579694560 xtb: 6.5.1 (579679a)
C            6.25939449521828        2.72810125414528        0.23181121221393
O            5.35342679964350        1.61801619192257        0.21997798845212
C            4.16505361531811        1.82570903907644       -0.33212895400848
O            3.82116772234328        2.88042985109641       -0.81060921766191
C            3.28518286026386        0.61270298670906       -0.30887435105203
N            2.07129403468407        0.80263438149472       -0.90860548917625
C            1.21154768962811       -0.15992558701422       -0.97680829985525
C           -0.11405044457936        0.08990817870490       -1.67892713173486
C           -0.24411798512779       -0.80376222099910       -2.91793897477459
C           -0.21888075765334        1.56388791377339       -2.07127250242415
N           -1.21610159550491       -0.17338100336214       -0.73196422606451
C           -1.64937354305356       -1.38199074688101       -0.35801884456143
O           -1.18423808461222       -2.46436666491554       -0.65564568425925
C           -2.84243727983777       -1.29602316729045        0.55557289491598
N           -3.52170177971535       -2.37813607472496        1.04203385781372
N           -4.44472789671427       -1.94788912115775        1.79026519207126
C           -4.41787324733380       -0.52606228231543        1.84051022443942
C           -4.11467907445038       -0.04295698407220        3.26519827393775
C           -5.71243203560061        0.07509317153983        1.28148053764337
O           -3.32265506270559       -0.19144382894661        0.98404488524125
N            1.46465861906248       -1.39589725688808       -0.47131508580206
C            2.63427810620324       -1.70663309000363        0.18331092997485
O            2.85376311911940       -2.80464492050201        0.66485816907414
C            3.59819940862461       -0.60455251526005        0.24684439933427
O            4.74177956961018       -0.87730309886392        0.86505546944428
H            5.80598771423134        3.57470896912193        0.75225853705374
H            7.15233264649695        2.39288469402150        0.75562207671296
H            6.50413227704000        3.01987308511413       -0.79215224072336
H            0.52297612662998       -0.52054994931974       -3.63762318605947
H           -0.11953106464609       -1.85437007828775       -2.66764050331673
H           -1.22519945411487       -0.65870230132113       -3.36599171846645
H           -1.17911224996472        1.75004043004584       -2.54728011758412
H            0.58095605288030        1.81173754692551       -2.76758166953344
H           -0.12248429871034        2.19668473625464       -1.19074803279164
H           -1.70158197757572        0.63400078608090       -0.37361661136552
H           -4.03435020466650        1.04110345338186        3.25594741135431
H           -3.17631887836298       -0.48034144675416        3.59921060115447
H           -4.92534224442363       -0.35350754025693        3.91981677716394
H           -6.54319209449570       -0.23175310195671        1.91232543478793
H           -5.62287574352121        1.15848863427373        1.28274257429733
H           -5.86360588135778       -0.28139004862138        0.26506200722204
H            0.76316659791612       -2.12733612145123       -0.53868798499794
H            4.72756542374408       -1.79778515255218        1.18948437193195
