16
 energy: -34.130079602384 gnorm: 0.000441178816 xtb: 6.5.1 (579679a)
C           -1.53643136166409       -1.83011417564054        0.05897651566398
C           -0.37132071603100       -0.96926865694354       -0.24402890449419
O            0.82491781088679       -1.47783746048028       -0.57934905381840
C            1.65214618337340       -0.37156676665343       -0.82283886625408
C            2.99398603935503       -0.44423915618508       -0.49126250512383
O            4.07505387766184       -0.37464838468359       -1.00486723807757
Cl           3.48380949066794        4.68811846320504        3.48222005020706
N            0.91720873227469        0.78359341638311       -0.63174618783178
N           -0.30252764897171        0.33053221644402       -0.26936619563083
C           -1.36481476636149        1.27701681248481       -0.01971014151139
H           -2.33089896177570       -1.66597383481646       -0.66982582907385
H           -1.22975104773935       -2.87288535210531        0.02510640789783
H           -1.93510645623383       -1.60230107664034        1.04775147795017
H           -0.94462398436687        2.27942303856628       -0.06161034454804
H           -2.13486973485071        1.16265097377822       -0.78090552280395
H           -1.79677845622513        1.08750094328716        0.96145733744783
