42
 energy: -83.644504566422 gnorm: 0.000451455656 xtb: 6.5.1 (579679a)
C            4.63888507533212       -0.40382912437068        3.49417543174532
O            4.35003629877223        0.24274399076613        2.26520555323000
C            3.14691256880704       -0.06015220914834        1.70417538534683
O            2.38184008923023       -0.83413171512659        2.26747238640739
C            2.89352758540392        0.59006169092728        0.42830542974759
N            1.65360147825847        0.27732665487588       -0.10316887472734
C            1.29524567473535        0.73398086376253       -1.24384868522109
C           -0.04340902117124        0.36766892151829       -1.86251435128636
C            0.20207844994966       -0.57591208352950       -3.05334804112317
C           -0.79239552157778        1.62765432534576       -2.32849850110131
N           -0.82655758939794       -0.31147767625090       -0.84657487084207
C           -2.06086684194788       -0.80101832447917       -1.00996368078435
O           -2.66700292015705       -0.83826065448025       -2.08137906031386
C           -2.64209722661594       -1.37093570370950        0.33454169640920
C           -2.80049938646703       -2.89415666597535        0.14610288477675
N           -1.76068962431317       -1.04158165823955        1.44068130500850
N           -2.49377542222943       -0.22832496610632        2.26710913116491
C           -3.67856284493923       -0.08038048189301        1.80545972736032
C           -4.79725437477265        0.71065674554279        2.39008806970509
O           -3.90678686950657       -0.77001454808434        0.60222733438382
N            2.12802558547524        1.54831871572157       -1.98993942716007
C            3.36749004736682        1.95959524645513       -1.57525062115992
O            4.03331809510139        2.70362298401443       -2.29576557773312
C            3.82086336191465        1.43663152166338       -0.23403355355313
O            4.94854626310435        1.76893215679291        0.18299949761867
H            4.64250023485206       -1.49188365718686        3.37079706691181
H            5.62660382164897       -0.06825243202079        3.80763333229843
H            3.90082521588882       -0.13972375638534        4.25898650791620
H            0.68743615575821       -1.48987108315676       -2.71224576322696
H            0.84331353835987       -0.08788795676994       -3.78471355460344
H           -0.74234759486480       -0.83117180640687       -3.53111838206754
H           -0.23982762362196        2.12781621165275       -3.12051952898537
H           -1.77090678233495        1.34926399181146       -2.71712982505576
H           -0.92186377798204        2.31878692982906       -1.49632796964146
H           -0.49238180506428       -0.30477281157916        0.13168266175606
H           -3.43510707862225       -3.10272536461923       -0.71402665922930
H           -3.25325822080050       -3.31939464644172        1.03955780733534
H           -1.82081301129813       -3.34347812613668       -0.00635491063687
H           -5.64487992268978        0.06957181116970        2.64464085504990
H           -5.15394448129143        1.46760340040812        1.68740920842087
H           -4.44979589031138        1.20660029937623        3.29524932476573
H            1.83397529202222        1.88249899046575       -2.89200775891767
