46
 energy: -87.006103532585 gnorm: 0.000522519997 xtb: 6.5.1 (579679a)
C            4.75361512057057        0.97906366233297        3.60017380457375
O            3.95599116937423        0.55556701445927        2.50603080784407
C            4.44001705801286        0.88734471892502        1.26154239321851
O            5.49672993612191        1.50749581236621        1.14827461924133
C            3.58209396155262        0.43326627956464        0.19194812565355
N            2.43260874313610       -0.24167674452829        0.54740284408604
C            1.59352006190468       -0.68305026263075       -0.32821098202580
C            0.39083327547280       -1.45613210425824        0.21731248278096
C            0.53826414435946       -2.93961976745044       -0.16044028741733
C            0.37150463129169       -1.32485133636376        1.75142631565246
N           -0.82632118591110       -0.87089306179155       -0.35687580052981
C           -2.10296179690623       -1.31675587193227        0.12915125803385
O           -2.28093227077718       -2.48093228822535        0.57194277354798
C           -3.07449375524970       -0.33331413201446       -0.02841766043158
N           -2.89349975566985        0.95751304210279       -0.49274861130250
N           -4.11229002761916        1.49625381658491       -0.41714417520563
C           -4.30917282002723        2.86505109255376       -0.83250221753743
C           -5.01790060944096        0.66648297074757        0.04536727794821
C           -6.46289197309813        0.91915219170113        0.25299999505974
O           -4.44819850148660       -0.52041072724383        0.32067479129867
N            1.78893388177806       -0.50355100685952       -1.68364385929353
C            0.91020519589449       -0.98801667082292       -2.74416341596723
C            2.94827382391086        0.14114310267568       -2.15805119477782
O            3.14344144911374        0.26834356673936       -3.38488423693584
C            3.84355726105187        0.61989109768209       -1.17188645552905
O            4.96576511136145        1.25332555413245       -1.63071449246741
H            5.75185806095167        0.53022673830370        3.55329441087044
H            4.24895583808556        0.65440345154135        4.50983495015424
H            4.85939856170107        2.06935941568135        3.60809950047892
H           -0.20715606350368       -3.53769765168001        0.36113089656556
H            0.41025157794499       -3.08870377482284       -1.23050845919696
H            1.53079108252740       -3.28831166106603        0.12626051279285
H            0.28279087657437       -0.27710000884263        2.03717094612613
H            1.29377902440676       -1.72415218151663        2.17169031174833
H           -0.47225469264055       -1.87908261494609        2.15962104414165
H           -0.78081345722791        0.14368397949147       -0.34233961737961
H           -3.34993331910139        3.25838985674155       -1.16030750218633
H           -4.68804829986389        3.44938128244402        0.00445980060958
H           -5.02690400862711        2.89862624806373       -1.65073440124472
H           -6.93511489264080        1.23652685831872       -0.67750308992986
H           -6.61645034544361        1.70727626197886        0.99194823610903
H           -6.93913703261396        0.00554967757838        0.60279176657673
H           -0.08477003766883       -1.19502115384728       -2.36031250205396
H            0.84323978564050       -0.21700034611829       -3.51401682229456
H            1.33403993872039       -1.88978102822237       -3.19244254393433
H            4.91878327406563        1.25273970251514       -2.60211653746054
