47
 energy: -79.483200194013 gnorm: 0.000358442166 xtb: 6.5.1 (579679a)
C            5.49112081834169        2.00821875137499       -0.40372542535129
C            5.20161782430602        0.50169474202510       -0.63242983351379
C            6.21155682287042       -0.35173746044346        0.02387257216271
C            5.83203834630698       -1.44183941105232        0.74090685287315
F            6.75264436052913       -2.20689947743802        1.31328494025322
C            4.48433413373949       -1.79116864177928        0.92049748510012
C            3.48857300256860       -1.01560151831167        0.34341037592122
C            3.79135483622369        0.11282996083232       -0.39870940487265
C            2.71442981148087        0.95253153457991       -1.00070069393045
N            1.43092125270930        0.29281971983521       -0.97642196441181
C            0.42064152895524        0.79097635492163       -0.21505026313693
O            0.52612317175763        1.84024047244350        0.39666165301188
C           -0.81488904088472       -0.05112221508841       -0.19151979798337
N           -1.97601427142781        0.61669017145067        0.05918551872845
C           -3.11272926239347       -0.00391943105791        0.14859407426377
C           -4.34027425173795        0.87819109906756        0.34691820665122
C           -3.88784698527706        2.30951389610599        0.68351068571256
C           -5.16347589079592        0.89785405009940       -0.94876565106509
N           -5.16417078708975        0.36658479775292        1.43468437139684
N           -3.20140694672196       -1.36503098296063        0.01346465931183
C           -4.44455381977122       -2.13746756226428        0.10173049872197
C           -2.08136679398143       -2.13598670884259       -0.23910308490555
O           -2.13618519599779       -3.35592609611731       -0.37108586951505
C           -0.83454848171485       -1.40614189636059       -0.33943758595379
O            0.26763334183107       -2.15640812801758       -0.55924031557919
H            5.28714164390756        2.26059652705064        0.63464936611073
H            6.53626360987460        2.21114893400344       -0.62726146795579
H            4.86554170853618        2.61120265057973       -1.05668824094138
H            5.36910913833919        0.35598185713856       -1.71632470421449
H            7.25623005522440       -0.09201263775128       -0.09428581079002
H            4.23687500390515       -2.66283208745313        1.51480103999495
H            2.45053296891349       -1.29856977711976        0.48348726142510
H            2.97876525149641        1.23377800030505       -2.02457937086867
H            2.61293297701665        1.88087112695351       -0.41814170980158
H            1.33601115104049       -0.56905032256885       -1.48475426611170
H           -3.25707198254464        2.30480144725293        1.57084572323348
H           -4.76323613104454        2.92843769082121        0.87200934063462
H           -3.32292451401756        2.73096446816063       -0.14664501576262
H           -5.99673019776357        1.59067720380481       -0.83993107072499
H           -4.53934945190177        1.22475656330584       -1.77966152974125
H           -5.56060668400175       -0.08942202242145       -1.17472941044410
H           -6.03496086982479        0.87532667227958        1.47796097614268
H           -4.68542482828452        0.45594110666196        2.31949257751443
H           -5.20169095678699       -1.56505749913066        0.62969960888307
H           -4.23065185124535       -3.05872213515234        0.64455562795913
H           -4.78342372063733       -2.38673911363103       -0.90412020995840
H           -0.00886084402935       -3.09097167384883       -0.63123271847255
