42
 energy: -83.004928873092 gnorm: 0.000295748374 xtb: 6.5.1 (579679a)
C           -3.99042918711119        0.59624404084418        2.90645634089127
O           -3.40372193608693        0.99378149703933        1.65599923247945
C           -2.67954533619126        0.09950365784566        1.02085074504909
O           -2.48032691557652       -1.02736877293730        1.38873813977073
C           -2.11173905388030        0.65701419919609       -0.31916243011184
C           -2.04125153682242        2.18245849448472       -0.31926335142163
N           -0.78465334186007        0.09741690444154       -0.43185722398677
C           -0.60831707992252       -1.05203744944058       -0.93737115526561
C            0.76460204382513       -1.69403842044735       -0.90816811590301
C            1.22615518826622       -2.05553762206153       -2.32607414843167
C            0.70856974985080       -2.93034543873386        0.00245837987051
N            1.67114950068137       -0.70210500853073       -0.33686904924466
C            2.98064528599267       -0.91929358185674       -0.12169175240513
O            3.57785643426908       -1.95631102710486       -0.36618857611956
C            3.67095661750735        0.26109009058029        0.45983806478973
N            4.92063628891839        0.35634134503815        0.79218120081368
N            5.10692911351564        1.62020878360412        1.26706022032161
C            3.95977631334715        2.21936902502290        1.19402468487060
C            3.64099584605146        3.60995244286711        1.58393873413105
O            3.00704432762203        1.41495591030220        0.69278900920607
N           -1.62110751100215       -1.80058048165043       -1.52228779703482
C           -2.85771773413734       -1.30952113119259       -1.81761767240713
O           -3.69428123643829       -1.95789596063240       -2.40286148040488
C           -3.08517004258748        0.13713609216848       -1.36135275694535
O           -4.00813210684977        0.78728587920745       -1.77478739060969
H           -3.22290139344671        0.17245370015125        3.55627115937568
H           -4.77118707870961       -0.14511392990698        2.72678598370682
H           -4.41156901484497        1.49666224992274        3.34691109463372
H           -1.55674112236057        2.51808204761550       -1.23392224573781
H           -1.46446217938400        2.52259082690766        0.53686267357278
H           -3.04477909007984        2.60086500899963       -0.27043044862873
H            0.53668280220655       -2.76599887494725       -2.77659278870105
H            2.21556223025540       -2.50793046182851       -2.28460703033378
H            1.26753539623803       -1.15901772945148       -2.94237210021000
H            0.02256359647511       -3.66589776434417       -0.41173781813007
H            0.36508257418141       -2.64152719987311        0.99484353029883
H            1.69791293786488       -3.37731567825134        0.07878639299118
H            1.26174139816879        0.19161878800353       -0.09659161429032
H            4.53614766763772        4.09746080304330        1.96248106404035
H            2.86934650888834        3.61451887471760        2.35315902822372
H            3.26174856283950        4.16001876076297        0.72309805517223
H           -1.43160648730328       -2.73919388958362       -1.84016278788403
