42
 energy: -82.949152218985 gnorm: 0.000690940561 xtb: 6.5.1 (579679a)
C           -2.74344583966179        3.86044488783558        0.82396189056218
O           -2.76599072591300        2.49418310221659        0.36659996642026
C           -1.56307248004573        1.91191078757864        0.18027133272308
O           -0.52602515656079        2.48874017498176        0.36680999507791
C           -1.68001145263477        0.48856823707672       -0.26638846977611
N           -0.50673926922875       -0.12767603475544       -0.46874917736326
C           -0.54567726842772       -1.39470655750411       -0.88474725831118
C            0.78339893356285       -2.08760462058909       -1.13841258457126
C            0.90436220693370       -2.37007830640904       -2.64355519346114
C            0.83684468207963       -3.39086652463260       -0.32925267986458
N            1.84805458422153       -1.18508749359838       -0.70764813593632
C            3.15483567741183       -1.46764640792124       -0.79416826232787
O            3.63446665680541       -2.49863989949843       -1.24649795969214
C            4.01958349710201       -0.37603889794114       -0.26762491856361
N            5.31542317867651       -0.35671415705079       -0.21225637933171
N            5.66802282138993        0.83385517192148        0.35265756480213
C            4.56566657433102        1.46661560165975        0.60663509769062
C            4.41288190526160        2.80329551733904        1.22195511579581
O            3.48617943908702        0.75718195880461        0.23811837994947
N           -1.61940747800313       -2.11429404770085       -1.11916543718213
C           -2.86773226603680       -1.58110714833333       -0.92248415444038
O           -3.90569753731963       -2.22360489929392       -1.09540632649490
C           -2.84924615185055       -0.19720179057230       -0.48417136052541
O           -4.13272072996650        0.44387997003152       -0.32786715623594
C           -5.01708600014607       -0.11536462784950        0.69058109150524
H           -3.77389228747850        4.13084147607121        1.03743821003403
H           -2.13196250672224        3.93216111665723        1.72525033319430
H           -2.33084958336622        4.50072166496820        0.04242756310578
H            1.81786167640429       -2.92349564068036       -2.85516449601933
H            0.04520506763587       -2.95830549052710       -2.96350394912057
H            0.91790568811099       -1.43196998799144       -3.19661903682660
H            1.75037050943362       -3.93982280849465       -0.55190094413094
H           -0.02446455871152       -4.00507475419150       -0.58899636015992
H            0.80400583618821       -3.16735290206962        0.73615690022675
H            1.54513539205707       -0.29921383242305       -0.31997154787707
H            3.72990203007911        2.74742493189972        2.06833602496337
H            3.99606034998797        3.50233935450904        0.49703852268607
H            5.38276245420858        3.16422184267529        1.55512918749342
H           -3.95959095385168        1.40757143624249       -0.12828164859002
H           -5.23779751528104       -1.13863975049101        0.39062062027645
H           -5.91475822497576        0.49646675980438        0.68159729852481
H           -4.52276217478890       -0.07991741175977        1.66037534176953
