42
 energy: -82.914070327711 gnorm: 0.000458549349 xtb: 6.5.1 (579679a)
C            5.98105062516020        1.13567717160275        2.43514665927838
O            4.84807799281525        1.26430552723613        1.56540734614140
C            4.06850689897011        0.20723495712179        1.44414257914207
O            4.23624847027525       -0.84438945987696        2.00658786411649
C            2.90306401727225        0.46069903359383        0.51136877935126
N            1.91042035119231       -0.35198403458128        0.59035748678729
C            0.86837001075542       -0.23170491092900       -0.32871117953779
C            0.03483439464475       -1.48577607966530       -0.54072564770067
C            0.34146552272578       -2.50559785280295        0.56554731083462
C            0.34754792357070       -2.11172169354895       -1.90216665687029
N           -1.36139594495977       -1.11339970934012       -0.36974737470614
C           -2.20996786317225       -0.53493069897214       -1.41932632747216
C           -3.05479347611607       -1.64395942174044       -2.06297515393778
O           -1.50149279775089        0.11762027561185       -2.42396498567128
C           -3.15407947702233        0.44782372188244       -0.74348775723981
N           -4.14210799724957        1.05811486588667       -1.30650412205081
N           -4.72096791139277        1.84467102682448       -0.33976376929624
C           -4.04533171633327        1.65423119205327        0.74393524033287
C           -4.26785411400950        2.25805919631902        2.07711095749278
O           -3.03380660698140        0.77929331054244        0.55666706905759
N            0.55909029932333        0.88118036873090       -0.89634812844015
C            1.39313862686499        1.98886968600554       -0.77379255931581
O            1.03240975752844        3.12032047975788       -0.95864664054086
C            2.85299323805213        1.62106666834659       -0.43090391107792
O            3.80500510281005        2.22250657006501       -0.85126220045240
H            5.64437964612400        0.91445887855707        3.44968421414841
H            6.50330112442473        2.08903459793103        2.40461881304778
H            6.62801340111324        0.33024896547644        2.08246460985621
H            0.15593594072230       -2.06873163662092        1.54494900849014
H            1.38419905799186       -2.81321551240462        0.51016233245065
H           -0.30112334483292       -3.37422536210238        0.43629924986779
H            1.38561603391422       -2.44174899051020       -1.90825323073316
H           -0.29395726054539       -2.97676428486034       -2.05922533952308
H            0.20244320945371       -1.40415750461018       -2.71448641224249
H           -1.49490094460606       -0.65324619579658        0.52292211449514
H           -2.40868003003884       -2.31597131735854       -2.62197489227334
H           -3.57358588284564       -2.20300549279026       -1.28825684873996
H           -3.77988024531456       -1.19390064722039       -2.73974557601235
H           -4.46322593746742        1.47612482454238        2.81060790999964
H           -5.11677886894434        2.93637902512916        2.03417533243644
H           -3.37950751460199        2.80320012096643        2.39520214246944
H           -0.78267471151654        0.65730934153746       -2.00709030596333
