43
 energy: -83.856030897005 gnorm: 0.000472453917 xtb: 6.5.1 (579679a)
C           -5.12374971125515       -3.06135674973627        0.98676188225978
O           -3.87034769946395       -2.47379197618405        0.69607185732664
C           -3.87508552811028       -1.07875529588964        0.63480727120256
O           -4.95987464384744       -0.46440070680488        0.86041031070470
C           -2.66112740206414       -0.48050791527108        0.33304552874078
C           -2.55740216700020        0.97545994678570        0.21486369205075
O           -3.69629536937294        1.71834026294046        0.37674134100581
C           -1.37320505156554        1.53158339845559       -0.09310794081628
O           -1.05748158349030        2.87099352545225       -0.26221882455558
C           -2.03260091454051        3.69617453333886       -0.87766441092746
N           -0.20408821497314        0.71619371496725       -0.18925055312536
C           -0.41688103561957       -0.67316742606502       -0.21711474005635
C            0.79935076680087       -1.50304167279152       -0.59421258523011
C            0.70873329806370       -2.90243027181816        0.02249103589724
C            0.88625615931067       -1.59999082028302       -2.12161750481161
N            2.01549618170329       -0.82371761001879       -0.13355459773772
C            2.16436377929854       -0.39683948858648        1.14613864167771
O            1.46559620848129       -0.75461329726335        2.09077132331896
C            3.28712345063383        0.54304310550514        1.31388924638621
N            3.68121096341555        1.12467621926324        2.41395502838146
N            4.72538228114924        1.93832353726529        2.07548932505576
C            4.90497497539749        1.80889412298858        0.80029016711212
C            5.91750423358161        2.48203141963413       -0.04368419164662
O            4.03230523954013        0.94359365799518        0.25060545012409
N           -1.51820229356499       -1.24614048836064        0.06507930818850
H           -5.48588375212616       -2.75993483065835        1.97778018896190
H           -5.87773677424137       -2.78010803906932        0.24134108706202
H           -4.98560228878517       -4.14376078777821        0.96756186148946
H           -4.42293333375282        1.04459825445989        0.58046792321336
H           -2.84365724151254        3.94817074244212       -0.18372593130016
H           -2.46113266693500        3.21500019285714       -1.76440587886467
H           -1.52344001189907        4.61398016817548       -1.17952061983165
H            0.47196703948195        1.05946207048432       -0.85537641128658
H            1.56995915747787       -3.49810749282635       -0.27474564064283
H           -0.20251774636886       -3.38760882065141       -0.32637007963276
H            0.67647950790041       -2.83682860115752        1.10974264723433
H            1.76741716919838       -2.16732138689324       -2.41641569355346
H            0.94597081204559       -0.60517137245883       -2.56028750725490
H           -0.00133663190601       -2.09993546848674       -2.50682490068356
H            2.61895665592029       -0.43361924522263       -0.83568158378268
H            5.43169164353310        2.99993332869097       -0.86992782497632
H            6.60181702273065        1.74605140628480       -0.46507647236083
H            6.47802651671548        3.19464615628682        0.55621277566917
