33
 energy: -57.873986131426 gnorm: 0.000404798304 xtb: 6.5.1 (579679a)
C           -1.85762212846516       -2.16657621927972       -0.19907145800515
N           -2.03642262198266       -1.07603966396205        0.79009478370260
C           -2.08285299497023        0.32213988532751        0.23407768846107
C           -2.52838600989302        1.22995886846685        1.38566501980648
C           -3.05654373137339        0.39956390645845       -0.93805973746849
C           -0.65708000852142        0.65346117034759       -0.14059469586432
N            0.28367529330996       -0.08400735306582        0.33706025386979
C            1.59887682697351        0.21934743009660        0.05989538345913
C            2.54654161614251       -0.75152320709456        0.67723283131321
O            2.19007983865510       -1.70508523183699        1.32595618236039
O            3.82821335805874       -0.46158940993233        0.43846606447880
C            4.79600253534288       -1.35926631342248        1.01079996227958
C            1.92511900412308        1.30709391884665       -0.70834799836021
O            3.15846002100584        1.69029943090843       -1.03200780717341
C            0.86355509460445        2.16862290433125       -1.25488892853889
O            1.02654592264921        3.15538495804849       -1.94122610920373
N           -0.41342755611073        1.74601699472477       -0.90764964205878
H           -1.72431303256548       -3.08958907949032        0.35992747865465
H           -2.74186453395800       -2.23218515502738       -0.82459942161082
H           -0.97309815849633       -1.95121089606771       -0.79268456713151
H           -1.22824679768196       -1.10340082034121        1.42220351348605
H           -2.87965923944242       -1.25138318297379        1.32750802216321
H           -2.49104806311458        2.26838821241076        1.06104343309838
H           -3.54850994031911        0.98778074137012        1.67779515322825
H           -1.86832271734909        1.10351797469260        2.24239218238811
H           -4.00554805137200       -0.05553993603185       -0.66111466493736
H           -3.23795896778825        1.44450977293422       -1.18411907675773
H           -2.65715722864120       -0.10205389412901       -1.81715797922660
H            5.77391724091950       -1.00777321946295        0.69046415142163
H            4.61470546910315       -2.37376014619514        0.65049890250980
H            4.71741971783165       -1.33697227869535        2.09971313872073
H            3.84244381081522        1.10963488138017       -0.65280510580255
H           -1.17749696748836        2.30223495666642       -1.26097495326255
