20
 energy: -37.645784924022 gnorm: 0.000354972341 xtb: 6.5.1 (579679a)
C            4.11725638836070       -0.22114782220580       -0.02953788161824
O            2.70266489789239        0.04981796170775       -0.04997218395809
C            1.89397611672667       -0.97308753514638        0.06378935409359
O            2.19819377163030       -2.12637696572907        0.18724152846308
C            0.45285104263955       -0.52999550266357        0.01834745830072
N           -0.59669729114179       -1.28813590516422        0.10447730944282
N           -1.63982793464483       -0.44639665375707        0.00131041904260
C           -2.98813128487297       -0.97145117711437        0.05388211395277
C           -1.20850122994957        0.79094034122716       -0.14559395189263
C           -1.97318060239529        2.03907942080047       -0.29835804604045
O            0.10744459805406        0.76109721590340       -0.13652788831735
H            4.38822541828996       -0.67115594918135        0.92666747532771
H            4.60844775208215        0.74008342817444       -0.15888605141876
H            4.36978521703513       -0.90117725963425       -0.84458372577453
H           -3.10058610298037       -1.53854412136872        0.97652603544074
H           -3.68510352649447       -0.13947493889104        0.02771957556156
H           -3.13858943759386       -1.62417950316934       -0.80512293933508
H           -2.55212814079165        2.23389495827995        0.60614885667725
H           -2.67135668677473        1.95249172907282       -1.13168990921327
H           -1.28474196507133        2.86371927885919       -0.47492554873460
