47
 energy: -79.488988732616 gnorm: 0.000654767959 xtb: 6.5.1 (579679a)
C           -3.06506852439251       -2.01042129878380       -0.47883113830327
C           -2.58332431251282       -0.68790767373675       -1.10065560955517
C           -1.49873055245885       -0.97876332164236       -2.15247081878065
N           -3.71074974617216       -0.01444227318595       -1.72573984350830
C           -1.94811822891223        0.12493651348292        0.01460761695869
N           -0.79059575164162       -0.21797908711635        0.39886959402607
C           -0.10582019597793        0.37847185152207        1.43218599771034
C            1.26925697963445       -0.10614296271158        1.72831145981229
O            1.92877452130488        0.40200791004259        2.63971869781697
N            1.69690716501213       -1.10444874357060        0.95674746897585
C            3.04705893098736       -1.65105672496192        1.07614535627051
C            3.97120717044386       -0.97487297549449        0.08642119996406
C            4.35359616623216        0.35034811219731        0.28970318011933
C            5.18223636365332        0.99065343490012       -0.61956786350130
C            5.61667363775007        0.28051001318019       -1.72537134208660
F            6.41670750246386        0.89414460550631       -2.60977712822411
C            5.25804528130975       -1.03525625839766       -1.95551476249141
C            4.42477661906066       -1.66016205093662       -1.03721070317891
C           -0.66185287137044        1.37200331397319        2.18719417701139
O           -0.05422205756735        1.94323031509958        3.21495073737769
C           -2.00476790261691        1.85786476231972        1.90326820739357
O           -2.62474086597804        2.68393711932826        2.49900461713130
N           -2.66474860066996        1.26567079997792        0.65810895136302
C           -4.05338361476934        0.88236466603556        1.05506767905480
C           -2.69176086066133        2.41088565164993       -0.30859611450029
H           -2.24441360382652       -2.49517222716251        0.04735576283117
H           -3.41736486370512       -2.66795060524412       -1.27175885760689
H           -3.88040459961394       -1.83183365202119        0.21972882051490
H           -1.93504734498214       -1.56262733301282       -2.96068401390474
H           -1.10928652835855       -0.04541468681342       -2.55567111031322
H           -0.68097764941022       -1.54064317632178       -1.70493052184461
H           -3.40194264481638        0.47500994405231       -2.55547310957262
H           -4.39440030962734       -0.69889451563685       -2.01924774008558
H            1.10797304765121       -1.42496394237261        0.20460434732424
H            3.38316012423329       -1.47593480180181        2.10268922442540
H            2.99165845191588       -2.72504856641910        0.88790538150611
H            3.99716434261117        0.88462561856014        1.16249464009501
H            5.48378808008807        2.02053645167428       -0.47763775523887
H            5.61673680362610       -1.55662402005256       -2.83368821716306
H            4.12596916931838       -2.68870208428047       -1.20036932852324
H            0.85705258496715        1.52570569122038        3.29838797742240
H           -4.51286770355232        1.74373738504126        1.53523744388842
H           -3.99234778446765        0.04505053625450        1.74563376074282
H           -4.59867807108552        0.61133605037474        0.15618586698790
H           -3.30789084560676        2.12455119860084       -1.15332228850758
H           -3.12314654256244        3.26988358536676        0.20138094417268
H           -1.67209236495939        2.61780245132082       -0.62398184400695
