42
 energy: -83.620848624623 gnorm: 0.000293958016 xtb: 6.5.1 (579679a)
C           -2.48258040813898        3.57524428030660       -0.71837862413828
O           -2.78970462154515        2.21447187313037       -0.68716129235257
C           -2.17024552967397        1.44576841214373        0.52924622521250
C           -3.25904163773448        1.58129923881729        1.65631267484405
O           -1.01345964598305        1.90865741438315        0.87326633426618
C           -2.15992505314477       -0.03604111508384        0.00114983697710
N           -0.90113684566005       -0.54707174931811       -0.09007168771334
C           -0.68260177864118       -1.75308879667365       -0.49143498768893
C            0.73289771004680       -2.30043479635390       -0.52304755849651
C            0.88266332842288       -3.43827144437701        0.49901933023490
C            1.11207145308724       -2.78395627579697       -1.93024755773577
N            1.58778330486597       -1.17405667566378       -0.14818367669189
C            2.91146093990147       -1.23796566389067       -0.01668035430550
O            3.60372727184476       -2.23991797182780       -0.17320285522523
C            3.53529914762277        0.06759245242628        0.34859460095315
N            4.77428171914377        0.27671004544309        0.67923495725742
N            4.89906109810249        1.61657656586357        0.90955167065662
C            3.72928488757138        2.13971113261808        0.70075380357225
C            3.35491602568518        3.56795133226682        0.79699063409548
O            2.82563362609972        1.21443856077269        0.34695701697022
N           -1.72168641427989       -2.57590104438093       -0.86316790686110
C           -3.04103037906991       -2.18233620665921       -0.82219321100863
O           -3.90901289626892       -2.99273069616083       -1.19307827830551
C           -3.30125366789607       -0.79547965373246       -0.32483287961209
O           -4.50705957273182       -0.41278908811821       -0.23193904888062
H           -2.46533949403826        3.91964054631042       -1.76206319529678
H           -1.49087177945396        3.78551569969290       -0.28006984373802
H           -3.22517799613239        4.19013066634076       -0.17635496227071
H           -3.02096642034839        0.87982428918073        2.45634475364462
H           -3.21276282091850        2.59395104447852        2.05686830861235
H           -4.26306350405488        1.38605351506902        1.28404024823159
H            0.18026247325179       -4.23425828484134        0.25973421504225
H            1.89168651408395       -3.84570561867807        0.47506930704040
H            0.67033611594707       -3.06964199334742        1.50218804925133
H            2.13176598427503       -3.16506323907187       -1.93712290900163
H            1.03469570613376       -1.96260038387034       -2.64190728844460
H            0.44118379049306       -3.58328364696700       -2.23831402783055
H            1.08032094071668       -0.30068686139824        0.03442824171049
H            4.20546562011991        4.14028515753866        1.15686162590872
H            2.51301261627433        3.69521886119670        1.47755765081778
H            3.06002144104430        3.94144136805515       -0.18379634394514
H           -1.54091224899458       -3.50920324984634       -1.18911299574144
