42
 energy: -82.914105811568 gnorm: 0.000629484663 xtb: 6.5.1 (579679a)
C            7.06957220101876       -1.52866484397475       -0.37962222813642
O            5.92289564762990       -1.23366729118523        0.40753558941847
C            4.87072022996192       -0.70143627672425       -0.25980654047895
O            4.93271029488274       -0.49950729723890       -1.46647518251510
C            3.71080800180135       -0.40264137974651        0.56984058745520
N            2.67265122262623        0.15676668377068       -0.15192492424289
C            1.58086437499840        0.48813599398717        0.42424699231703
C            0.44314944278581        1.10212913070237       -0.36081595399010
C            0.23644732233341        2.56309409066511        0.05759548354069
C            0.71867485412233        0.98371583795470       -1.86085947614560
N           -0.77177433954179        0.32320625061649       -0.02369478644908
C           -1.98178839586523        0.58946265539582       -0.50963087241428
O           -2.29768356642284        1.48034145508990       -1.27785355354684
C           -2.99503991364614       -0.38423150829204        0.01128592708265
N           -2.83212089004226       -1.38641354620066        0.78881490361589
N           -4.04134116470145       -1.99564359538920        0.98390604889769
C           -4.93586203880171       -1.36491361214730        0.32570740461444
C           -6.37790369880722       -1.63225926524487        0.21479464495707
O           -4.34004922930960       -0.28944558110241       -0.34646823944974
C           -4.94225123555994        0.71797212519476       -1.22097544286785
N            1.38518610252206        0.31431968771807        1.78252333014041
C            2.32157326880240       -0.24692783502242        2.61788424476918
O            2.06859111343393       -0.37791172214727        3.81114715889711
C            3.62297534133635       -0.66033761386304        1.96369834122863
O            4.50077586446813       -1.18046886654571        2.67357177588179
H            7.82326489431438       -1.93603515155463        0.29337831333994
H            7.45158959791780       -0.62255755990645       -0.86011188169916
H            6.82751943453693       -2.26326579173273       -1.15385101482189
H           -0.56138034879214        3.01738286772083       -0.52550003223821
H           -0.02359803143620        2.61742702243179        1.11305692582750
H            1.15857667165768        3.11792599294984       -0.11168231840385
H           -0.08444664138707        1.44277319032438       -2.43201464146490
H            1.65747201909144        1.48721155126312       -2.08933808855040
H            0.80525761602468       -0.06553102889823       -2.13983564596770
H           -0.67392868321735       -0.46385094076909        0.60106452735427
H           -6.61485959750421       -2.51318198079850        0.80884532305884
H           -6.65376268126055       -1.80931548151655       -0.82495081844029
H           -6.95305675773627       -0.78144370062030        0.58096558290852
H           -4.46645116015449        0.62907664883173       -2.19552933490958
H           -4.75212567319980        1.69139970590882       -0.77369868527916
H           -6.00337896479475        0.49550767882222       -1.26783892635926
H            0.52152849589726        0.60835030127125        2.20261548306430
