46
 energy: -86.343029606995 gnorm: 0.000625327155 xtb: 6.5.1 (579679a)
C           -6.04352532348963        1.65553941155338       -1.37375355545760
O           -4.91245994446966        1.40905748064630       -0.51892520054059
C           -3.90796343057893        0.72910156406911       -0.95010455646051
O           -3.98874597264399        0.31091982551912       -2.16576203656674
C           -3.02143648741449       -0.47532592027452       -2.87582555264526
C           -2.81726016277231        0.50937319374901       -0.02410566984958
N           -1.71083457204061       -0.17108530209586       -0.46950953279253
C           -0.69850848535015       -0.41044081030007        0.30554529376666
C            0.45339262914974       -1.20440626133367       -0.29863410810589
C            0.27948484025679       -1.33391970527614       -1.81640111299358
C            0.48211594649377       -2.60520186163252        0.33163772789710
N            1.69078322270195       -0.45973851512219       -0.04916624593778
C            2.92175812456199       -0.94767990710524       -0.36553119905223
O            3.16969833122831       -2.09184164359938       -0.68653920896377
C            3.94470211065195        0.11668137418738       -0.23193674596552
N            3.71561193341220        1.36558969743410        0.04642759904076
N            4.92307738909728        1.99335703103808        0.05436252616109
C            5.81370961925023        1.08703760375641       -0.22099242219908
C            7.27880723054081        1.26283730582981       -0.32550812107786
O            5.25608784364094       -0.11699022434667       -0.41306200281187
N           -0.67588953896933       -0.01133237459487        1.61889668551152
C            0.39763901551100       -0.29082293075093        2.58232139867781
C           -1.73438526995438        0.67208286909390        2.17579792240234
O           -1.76119860493193        1.03013811204905        3.34217333844610
C           -2.85793408030862        0.95420546004153        1.28090981292609
O           -3.85840637307765        1.61688973720830        1.82314641264178
H           -6.48105138091579        0.70484186095740       -1.67990565951807
H           -5.72048130035991        2.21461689280327       -2.25239449842147
H           -6.74458682430125        2.23490084500057       -0.77736074356239
H           -3.46311870152721       -0.66405996714912       -3.85341561838057
H           -2.84154038417169       -1.40959250023853       -2.34565365419915
H           -2.09191310223686        0.08405348108537       -2.97323825491615
H           -0.61013409927769       -1.91783194647810       -2.03925791380499
H            0.18928638270675       -0.34976912253870       -2.27178904833067
H            1.14717541444419       -1.84280420522370       -2.23378339579416
H           -0.51745082577494       -3.03342123293192        0.27698462026080
H            1.16885031166289       -3.24523320358579       -0.21870628085012
H            0.79489155101311       -2.56987242053692        1.37159488146161
H            1.60707623940348        0.54535485276039        0.00329183717148
H            7.52719565474764        2.31824513425890       -0.24218557627010
H            7.63291628692433        0.87364420107684       -1.27967310409861
H            7.77603051919736        0.70863005114178        0.47114329855243
H            0.53411152456191        0.60077649136320        3.19359373638574
H            1.32051198170347       -0.53194555943547        2.06985948585164
H            0.08560906378442       -1.11749566195718        3.21982740830292
H           -3.65169530208031        1.80293779987624        2.76423503410574
