42
 energy: -82.983832436135 gnorm: 0.000601697432 xtb: 6.5.1 (579679a)
C           -4.42351895461337       -1.27686066373933       -3.02899593579587
O           -4.05617920521626       -0.74082484126297       -1.75085821339736
C           -2.85517453376661       -0.20326532974513       -1.65176928245417
O           -2.05581700017508       -0.13289701885739       -2.55022153411406
C           -2.56680254349784        0.30026676809942       -0.24996638610076
C           -3.66789002381288        0.65792526859432        0.68976670056463
O           -4.77479135140041        0.97587205024393        0.33912992170169
C           -3.25205242696994        0.63921003738106        2.16302021601884
O           -4.05141712543669        0.55107555410819        3.07211812085109
N           -1.91838743821291        0.70518736820447        2.35958642991689
C           -0.90211313486390        0.87440903384383        1.33926586308239
C           -0.56833322964750        2.36844642682346        1.19952319737414
C            0.35011037321929        0.01034300713069        1.70127796279650
C           -0.07574958380766       -1.45171302581563        1.87916039840416
C            1.06566843423331        0.53059797726646        2.94850697081120
N            1.23412248455849        0.11915543423817        0.54156723842718
C            2.45426376051740       -0.45471249737430        0.46491666318333
O            3.03086963754300       -1.03234013514132        1.36827482286906
C            3.03057363618799       -0.26529608156871       -0.89195333714281
N            2.43277385353785        0.28304921072401       -1.90651611651810
N            3.31539113940789        0.25638622798509       -2.94390883253797
C            4.39621342985666       -0.30700750119639       -2.49555177981056
C            5.65376084278796       -0.56174253434821       -3.23212794232348
O            4.27716491681878       -0.66101542565342       -1.20730437910900
N           -1.33508798269659        0.42296516663826        0.05389475106209
H           -5.44105749943744       -1.64702221220978       -2.92780049478784
H           -3.74566737666240       -2.08953482927504       -3.29709610446195
H           -4.37236030660121       -0.49458805544207       -3.78893385862753
H           -1.62360114890168        0.81089612630973        3.31848864894548
H           -1.42229142871799        2.88726678277718        0.76841681273465
H            0.29711402199636        2.50032223225519        0.55428175190509
H           -0.35735150604659        2.78634895928827        2.18025131627302
H           -0.76735807755958       -1.53785811631199        2.71498512107711
H            0.80066473507207       -2.06557659228864        2.08038899129573
H           -0.56407176266771       -1.80976563493099        0.97366377439655
H            1.50260035411908        1.50964904909129        2.76226239772214
H            1.86265483808863       -0.15705234112309        3.22701658310291
H            0.37019953298801        0.60314587169109        3.78152244428253
H            0.80915307183246        0.42965265948747       -0.32485863867253
H            5.54922561275802       -0.22530371797334       -4.26044120928444
H            6.47738721434686       -0.02963312288329       -2.75636075450897
H            5.88716075084187       -1.62583853505118       -3.21661829915651
