42
 energy: -82.949313004888 gnorm: 0.000270131282 xtb: 6.5.1 (579679a)
C            6.23134899372405       -1.19463424733841        2.23383526018222
O            5.32659323603824       -1.08884564720991        1.13580249429862
C            4.17884347432153       -0.44462642928745        1.37525272766478
O            3.91482962328649        0.03161491563640        2.46312668539574
C            3.27297600931365       -0.36481128789769        0.20788642559479
N            2.12400200206035        0.30482579741082        0.47186612711552
C            1.21432396272264        0.46591288892221       -0.43940655390745
C           -0.02691790192935        1.26662066532309       -0.09957434537046
C           -0.19775328662917        2.45210332930224       -1.05533624238377
C            0.06456046306516        1.76174594493543        1.34440714673801
N           -1.22542595599315        0.39208404870931       -0.15757510053739
C           -1.80936781597763       -0.03538026876138       -1.26669473517130
O           -1.42455894182609        0.09332271552384       -2.40924760470207
C           -3.15282132000305       -0.82595802889289       -1.01773447832679
C           -2.99416950815922       -2.23116689574046       -1.59997657154541
N           -4.20678838146562       -0.08733485873406       -1.63304838743628
N           -5.04472680462736        0.28040493472711       -0.71880455951886
C           -4.62060536556647       -0.18416350119347        0.45646453219221
C           -5.28826479705243       -0.00286364318035        1.75183012126689
O           -3.49567507516593       -0.86064068725182        0.35191949938315
N            1.36417087644991       -0.03077110561904       -1.69739036442748
C            2.46650428516885       -0.74827419168252       -2.11707292687335
O            2.51947656343220       -1.17962028739365       -3.25525419454565
C            3.55524205477222       -0.93371405321736       -1.07930979347232
O            4.58052115872571       -1.54309804944243       -1.38854845403759
H            7.11810041078793       -1.70624021997070        1.86340274476148
H            6.49624951189693       -0.20104778569624        2.60504972422058
H            5.77615039557143       -1.76918865989788        3.04476357619262
H            0.64564720076359        3.13029801553569       -0.93440449249011
H           -1.11659585904903        2.98324648508741       -0.81456573806358
H           -0.24018072250793        2.12679395932429       -2.09222165707795
H            0.91848075263763        2.42930151010986        1.44842220195903
H            0.19721300614571        0.92108585728254        2.02354652481457
H           -0.84360548110334        2.29912563335646        1.60860975404518
H           -1.65842071321972        0.18030408349706        0.72646964079578
H           -3.93772768080291       -2.76346997548774       -1.50823399027611
H           -2.22010791198977       -2.76337182019083       -1.05239546063195
H           -2.71603225671108       -2.14168910467970       -2.64819236512781
H           -5.74741944558228       -0.94649179409311        2.05531223801969
H           -4.55825414355891        0.26365594776244        2.51523507935254
H           -6.05812991215942        0.76096514161962        1.67489104396078
H            0.61831530022340        0.08791266878094       -2.37310253203396
