20
 energy: -37.579537861653 gnorm: 0.000639356961 xtb: 6.5.1 (579679a)
C            3.93077673185921       -0.23051797474285        0.10992259246253
O            2.60959402096825       -0.20050397415226        0.68609573184915
C            1.59876434964864       -0.20621586486523       -0.14355504728006
O            1.65098727381045       -0.23322282215084       -1.34437767880649
C            0.30361517230373       -0.17627630317432        0.60930605402866
N            0.08032859447208       -0.15354740480374        1.86807495306929
N           -1.26677464365274       -0.12965947412938        2.07531590024323
C           -1.86545854366559       -0.13750593163723        0.94459131042875
C           -3.30647865020883       -0.11879386929775        0.65606105359804
O           -0.91321755300672       -0.16848832030495       -0.07902624230091
C           -1.10690474915911       -0.18188330134452       -1.53209248907644
H            4.62408426350167       -0.25051687905383        0.94746599691022
H            4.08056138296373        0.66131996575641       -0.49995870876650
H            4.03772477511145       -1.12310054916674       -0.50787194599812
H           -3.84930928137738       -0.10903873715531        1.60000416697805
H           -3.56752164932946        0.76751387105015        0.07636560543094
H           -3.59210940967386       -0.99914230979112        0.07947687214921
H           -2.17818704452138       -0.17461828468831       -1.70190426371349
H           -0.62675535128542        0.70841505805048       -1.93175875460341
H           -0.64371868875874       -1.08964889439862       -1.91213610660262
