47
 energy: -79.483198504712 gnorm: 0.000548906378 xtb: 6.5.1 (579679a)
C            3.28966477970776       -1.66008028277065       -0.75299323521039
C            3.74673052121513       -0.37994944460075        0.02937222069371
C            4.96141990814187       -0.73565961745023        0.78313116480328
C            6.14560240069739       -0.13194349476317        0.49784256325950
F            7.24340025485872       -0.48850029117394        1.15330609760869
C            6.26191686553237        0.87276390728791       -0.47558998389163
C            5.12890454943055        1.31561627520321       -1.14726206405957
C            3.88594397695265        0.76430208532921       -0.89471591024253
C            2.66795962448407        1.31166048420376       -1.56469662284959
N            1.51932919850803        1.30958188319316       -0.68196406267200
C            0.47215586701884        0.47833584463488       -0.91594847019153
O            0.49162074691088       -0.33631589932634       -1.82778740591924
C           -0.68151583299481        0.60556182363515        0.02181651492795
N           -1.76780848506202       -0.14279712824669       -0.32818378544078
C           -2.84813389839365       -0.16588621489446        0.38800621799080
C           -3.98316632583966       -1.03286825523100       -0.14382219511063
C           -3.44931898024468       -1.92391929090790       -1.27890240878343
C           -5.10764272185757       -0.13921056873300       -0.68460574140692
N           -4.50453731302625       -1.87807918130753        0.92287227456518
N           -2.96578583041034        0.57544591088502        1.53587792438612
C           -4.16622064507591        0.63756406010072        2.37528307470820
C           -1.92424352213622        1.36444062381768        1.98361310697097
O           -1.99963044090931        2.04192470288086        3.00534182473960
C           -0.72535726824063        1.34708285415739        1.16659374127400
O            0.29184896137025        2.10091050120706        1.62699691894099
H            4.06031310983088       -1.93962442692007       -1.46702156472750
H            3.13425839144453       -2.46808143822199       -0.04238477032671
H            2.36042221049524       -1.44832213534647       -1.27629248899516
H            2.91939296680061       -0.17971851467918        0.72607598343439
H            4.89526462038055       -1.52352833903941        1.52323999861402
H            7.23307873628993        1.31160233932198       -0.67266692002255
H            5.22244705758793        2.12606435389964       -1.86089854943602
H            2.41806255506866        0.67693688676893       -2.42823206863342
H            2.85719443331756        2.32508396059768       -1.92808546571267
H            1.48700732786331        2.01788684046934        0.03285368833237
H           -2.61727238045289       -2.52751922357083       -0.92085786786393
H           -3.10514836624564       -1.30989553194054       -2.10996319387780
H           -4.24410329778082       -2.58256290120684       -1.62423778550652
H           -5.55364775168442        0.45299342752466        0.11159630354400
H           -5.88255516703673       -0.76057232702838       -1.13136334947429
H           -4.71235981164634        0.53292780058745       -1.44532703433420
H           -3.80098438313484       -2.53033791740344        1.23747264948199
H           -5.31158167313372       -2.39112136306605        0.59937033705890
H           -4.78267407292122       -0.24110604001055        2.20960267343954
H           -3.84747462028494        0.67533035817472        3.41723273002568
H           -4.72165144400397        1.54547650295937        2.13795875784758
H            0.00887316862170        2.52810540100672        2.46033317805182
