47
 energy: -80.233161406894 gnorm: 0.000771907163 xtb: 6.5.1 (579679a)
C           -4.65421795150103        1.35730664827330       -1.22461486998292
N           -3.35382464167561        1.10568226475468       -0.60222414552896
C           -3.00277948837747       -0.06075816355932        0.03200881712301
C           -3.96502429171878       -1.23621697519065        0.17218046289583
C           -3.20302060942098       -2.45080727305862        0.72730790412774
C           -5.08740056397990       -0.85598254326116        1.14765056963375
N           -4.55145682619770       -1.57518101405202       -1.12343321566949
N           -1.84488602787220       -0.20218641831608        0.59309916897779
C           -0.90598176055786        0.79195048707887        0.59546763595916
C            0.35768576952637        0.41988811788342        1.32130816579002
O            0.50868920130606       -0.70101992252221        1.79521707869251
N            1.29154687952299        1.38178956854061        1.42316358146328
C            2.54457624917365        1.13192673706905        2.13636196706256
C            3.57134174520711        0.50993687381597        1.21399441818539
C            4.44780561181287        1.30923684883177        0.48513676488341
C            5.36938026757189        0.73589170298138       -0.37882298150873
C            5.43453331534146       -0.64832936289152       -0.53919393130704
C            6.39881392331195       -1.26313262447393       -1.50749009241099
F            5.00650948129479       -1.43609397664864       -4.20939170915004
C            4.55880483418639       -1.44362594679167        0.19965946927510
C            3.63778379032071       -0.87290978127050        1.06491659658228
C           -1.19307405293214        1.97271840957146       -0.02493305710926
O           -0.35112086932095        3.02648307346761       -0.10007049775206
C           -2.48338808034561        2.17660461951686       -0.65385550374275
O           -2.78104162300404        3.24174390536718       -1.19567742991965
H           -4.49484342557269        1.97969935288680       -2.10546869227361
H           -5.11670874442108        0.41852188719586       -1.51453518344399
H           -5.29240529230474        1.89425677640561       -0.52270741782136
H           -2.36586219041589       -2.70103004061146        0.07628060704865
H           -2.82048799119848       -2.23728404900467        1.72483786172587
H           -3.87788203631081       -3.30315211440339        0.77904728161669
H           -4.66333220875287       -0.52572247760728        2.09548285033755
H           -5.70640355544147       -0.05860100125191        0.74255035302550
H           -5.72003228261806       -1.72335937683346        1.32973223369059
H           -3.86456390323271       -2.03901501860508       -1.70415406300885
H           -5.31682281811263       -2.21725952846859       -0.97898659499975
H            1.13751892952219        2.30833246197487        1.06536174782051
H            2.89947008025872        2.08971656374206        2.52298295747701
H            2.33168183920895        0.46336651332953        2.97730713932419
H            4.41671423904144        2.38721963909061        0.60044094182804
H            6.04977388305779        1.37730666172221       -0.93082836771806
H            7.30926944356066       -0.66905164294204       -1.58338087429077
H            6.65989979060404       -2.27823799077839       -1.20909400160864
H            5.93497205480992       -1.30863777126160       -2.50660851880188
H            4.59984911585282       -2.52425702400623        0.10393782774669
H            2.96443632082484       -1.50593299698038        1.63376637471578
H           -0.81449853004373        3.75820492127567       -0.54918062896694
