47
 energy: -79.450631649112 gnorm: 0.000518072864 xtb: 6.5.1 (579679a)
C            7.11040836921994        1.93873293332984        1.61529910201915
F            5.92201415971348        1.16261362319885        1.86516832885342
C            5.04284337955815        0.53478882563190        0.87015967766599
C            5.28394180862379       -0.78498548366160        0.59279771296370
C            4.42319835196271       -1.37622056533693       -0.32713019378859
C            3.39709798260713       -0.64171658655713       -0.91901540994829
C            2.46138700127659       -1.30037534451223       -1.91094542350962
N            1.17142295071233       -1.56784742340234       -1.29353156918897
C            0.21514871105101       -0.60981860506378       -1.28344768311159
O            0.35597576882688        0.45542194576010       -1.87112344098714
C           -1.03647189953866       -0.93313488965795       -0.52868451597945
N           -1.93345020929349        0.09617143375842       -0.48700946660619
C           -3.06321165942383        0.00062598660949        0.14004418523647
C           -3.96037407297616        1.23104022006670        0.08186626775341
C           -4.99194541360650        1.04192767556540       -1.04101800549381
C           -3.09635191641982        2.46635972934808       -0.22578652268428
N           -4.65202445417716        1.42088903635636        1.35240134433189
N           -3.44206288214974       -1.15685384883426        0.77442003786583
C           -4.71355373115627       -1.31360432901703        1.48687201064646
C           -2.60078564970942       -2.25132627688899        0.81257579054660
O           -2.88598408841108       -3.29553671202379        1.39673742173827
C           -1.34123229760467       -2.10131224308037        0.10662272759792
O           -0.53765651727234       -3.18386899343791        0.14351988350165
C            3.22086860086924        0.70261090162611       -0.58760008904851
C            4.05864132726209        1.32311961422550        0.33139513804743
H            7.49079101210109        2.15023997899379        2.61009481639852
H            7.76701782372160        1.30357216076873        1.02794741569939
H            6.78288496320071        2.82611201122711        1.08174046795497
H            6.08977418870226       -1.33251916154865        1.06017614922007
H            4.56871411539602       -2.41830255478422       -0.58356542594565
H            2.87847741505897       -2.24735294048629       -2.25759215090908
H            2.29868023138140       -0.63664710175683       -2.76576891043007
H            1.11552363948823       -2.37011105081399       -0.68767731703882
H           -5.65030764886945        0.20032646453262       -0.83300974378746
H           -5.59786509253651        1.94210104637777       -1.13377498196550
H           -4.48078299438471        0.86235415811883       -1.98630414446906
H           -2.32365807700320        2.57941651980400        0.53297967066121
H           -2.61793643571663        2.36590452332137       -1.19935015755499
H           -3.72470346407220        3.35525120410055       -0.22615303491083
H           -5.33964004078334        2.15449092855738        1.24842587322675
H           -3.98799591531873        1.72251577208232        2.05350898299228
H           -4.91033634262437       -2.37992040276422        1.59749162418066
H           -5.51779171352832       -0.84601708302902        0.92834806215951
H           -4.64021843246274       -0.85014031729500        2.46932610319342
H           -0.97677400949861       -3.87661111131090        0.67588533422822
H            2.42481402312742        1.27553190155719       -1.04951875774425
H            3.94348913465016        2.36210443033739        0.60502181640267
