46
 energy: -87.069403764754 gnorm: 0.000862336626 xtb: 6.5.1 (579679a)
C           -5.03456698705823        2.99810812199755       -1.56045703010647
O           -4.21208859648807        2.22860994878380       -0.69822878173462
C           -3.14029483456151        1.58211261570574       -1.32690586971958
O           -2.96427733434799        1.75616018131930       -2.53982543396791
C           -2.36932198119836        0.79166559418825       -0.45162578201621
N           -1.29403285227694        0.16566268226674       -0.99882016136747
C           -0.46065959820119       -0.55708214752687       -0.34182843058454
C            0.62526979899964       -1.26736290209387       -1.13445574669672
C            0.43831703406824       -2.79225200092631       -1.08726585284886
C            0.55941699971896       -0.79601910027109       -2.59603642487424
N            1.94827915659557       -0.87684880975436       -0.60035663757480
C            3.11378671656299       -1.40825495033116       -1.00396497078123
O            3.25079402983320       -2.34376232774941       -1.77848432258406
C            4.29415466657405       -0.74410045615186       -0.38265750334406
N            5.54628706947245       -1.02244297779820       -0.57716801065773
N            6.26701360072744       -0.15516820677270        0.19058444859539
C            5.41030996025753        0.59927543801473        0.80485377824060
C            5.68914097210846        1.70195783433160        1.75051398231393
O            4.14453911087171        0.27975927331976        0.48662375388485
N           -0.61084027461409       -0.74797389855580        1.06360751209235
C            0.31824700290401       -1.53354033727739        1.87500207300959
C           -1.64691895938151       -0.21313199738434        1.75799414017384
O           -1.75736726755248       -0.41903534628473        2.96924119486331
C           -2.70667235657638        0.62320516204420        1.01529972738862
C           -4.05232405461005       -0.11009358394336        1.22448916546613
O           -2.74657907250471        1.88070930259766        1.70295964696786
H           -4.46377147542186        3.80576619396661       -2.03315042404136
H           -5.47309829563167        2.37208630788935       -2.34614200440611
H           -5.83120337090149        3.42470446290777       -0.95111738828059
H            1.05502878090222       -3.28012768944223       -1.84025171913419
H            0.70041374177220       -3.19877112527913       -0.11401914254764
H           -0.60701832074329       -3.02090022795800       -1.29242851409803
H            0.68729722333143        0.28461261649420       -2.64644927392832
H            1.34448661913085       -1.27742928108954       -3.17681287317234
H           -0.40942583083854       -1.05381598274029       -3.02105980702867
H            1.98687730639855       -0.02966628267575       -0.05549175433594
H            5.17009545924048        1.52677383828498        2.69221966712975
H            5.33116523070198        2.64557809970786        1.33821921038071
H            6.75928709188135        1.76814927592395        1.92902756740369
H            1.26545090955465       -1.66565945017431        1.36440636493428
H           -0.11728271340431       -2.50914998112220        2.10167729682308
H            0.49603611601535       -1.00549465942639        2.81377383329653
H           -4.86811961236285        0.47034192729959        0.80074041126573
H           -4.23034661748665       -0.24504831800945        2.29113267163876
H           -4.01790368299304       -1.08397910996512        0.73808329550605
H           -3.38757950846700        2.45187327367870        1.25524611845374
