33
 energy: -58.573605907726 gnorm: 0.000291959080 xtb: 6.5.1 (579679a)
C            4.16897691303422        0.97618080328710        0.82767904243713
O            2.85441207749541        0.45926327599504        0.79718155000474
C            2.36213556944929        0.01425404576615       -0.48940678635333
C            2.14567473386449        1.22873297290178       -1.41294808469187
O            3.26697607818210       -0.85222267898234       -1.09233843822266
C            1.03437047510179       -0.69194768832283       -0.19953091853725
N           -0.05698675451634        0.12281094024940       -0.07823505840898
C           -1.21090411303543       -0.39190043862649        0.18634690577502
C           -2.44286635790981        0.47847616157794        0.33494704116356
C           -2.93244738373945        0.43606680911081        1.79580808114326
C           -3.55814934661998        0.01218674237045       -0.61073756160018
N           -2.07734080135186        1.84053007334609       -0.04104308994694
N           -1.35681196731193       -1.74738217760818        0.36414142904140
C           -0.33307054209647       -2.66568592543077        0.25421142928645
O           -0.58047435840881       -3.86356967223015        0.42969543474444
C            0.99240714000901       -2.07815083941610       -0.06301520292504
O            2.01204443182209       -2.84296588655842       -0.19959932157003
H            4.85919030486939        0.36471794861661        0.23257348651564
H            4.21054562076152        2.01191557470063        0.46266507633748
H            4.49793066283855        0.96375390034926        1.86999087830724
H            1.67221005252978        0.89199901134987       -2.33366228347754
H            1.50238794363586        1.95530882042626       -0.92117255609780
H            3.10125086605402        1.68896630332981       -1.65597237119981
H           -3.79889979990150        1.08435001478496        1.91464809648033
H           -3.21438379583550       -0.57848182529276        2.07441203677356
H           -2.14398597772927        0.78029644207149        2.46433796292542
H           -3.85762994059584       -1.01010092855478       -0.38583469204048
H           -3.21568739534018        0.06432970723102       -1.64416661915796
H           -4.42794785323650        0.65798960156366       -0.49896901857043
H           -1.32093148351228        2.15594857861883        0.55834943550151
H           -2.86847308567596        2.44648640074484        0.12143929260059
H           -2.26263201229292       -2.12317490542650        0.59151997690291
H            2.97910809946236       -1.78898116193962       -0.77879615313992
