42
 energy: -82.972856884253 gnorm: 0.000663078873 xtb: 6.5.1 (579679a)
C            4.27499300792976        2.70636325896756       -2.90929754485652
O            3.00272193024040        2.30610450280996       -2.41319184150177
C            2.15245000874743        1.76669818575637       -3.33322840875830
O            2.48569233487571        1.66021634079543       -4.50043792741977
C            0.88066023380927        1.36396193052893       -2.74454561513276
N            0.76241202774357        1.58461591806575       -1.38907488499767
C           -0.31569711423258        1.27602494864869       -0.77287268066041
C           -0.47208269862490        1.58709983096353        0.69871255354527
C           -1.44078562290295        2.75658534420794        0.89411407959808
C            0.88786176437512        1.88799843448058        1.33033336090481
N           -1.07426833173603        0.41881889499334        1.37812822633340
C           -0.62803325159842       -0.81434552420421        1.31952048667151
O            0.43044472003126       -1.06100271713490        0.60492795921622
C            1.00728655464079       -2.37121098471557        0.49401910413772
C           -1.38347846236423       -1.78973825085352        2.06390557167411
N           -2.44635577475477       -1.50618230926465        2.77218092981927
N           -2.87137043757907       -2.65937606602753        3.31865936855674
C           -2.05210993521269       -3.59550324941000        2.92203739103536
C           -2.09909649336209       -5.03418745508188        3.24564931278158
O           -1.09240969221572       -3.10363834284952        2.12654682768711
N           -1.39762777202817        0.70691671907511       -1.41225695329062
C           -1.41422965401832        0.41315485871500       -2.75657704727752
O           -2.40492358697413       -0.11195828539050       -3.24958080213000
C           -0.16093537694849        0.78459566402345       -3.52258374120233
O           -0.12263779100888        0.56275053347169       -4.74165144033395
H            4.80948169236087        1.85087403363380       -3.33510316781972
H            4.83273424511826        3.10558412913502       -2.06359076542430
H            4.16562531387335        3.47691667135930       -3.67916623068362
H           -1.04261669889530        3.64171790186758        0.39992609701313
H           -1.56482420538383        2.97041843478014        1.95392658780900
H           -2.41156663888312        2.51923147608182        0.46258689841562
H            1.56671475845195        1.04989855717871        1.18772657215718
H            1.31165135869894        2.76578946786695        0.84403652645362
H            0.77139822252022        2.08159638308297        2.39414374970910
H           -1.88821556516690        0.57573321134654        1.95761121898769
H            1.30045630841601       -2.73261479839062        1.47947436236644
H            1.88332294824681       -2.25308641736595       -0.14160993245798
H            0.29424150957167       -3.06031927887150        0.04097796216502
H           -2.35044261067716       -5.60542175878842        2.35086556706591
H           -1.12250971041326       -5.36938445081177        3.59340400721897
H           -2.84932537346885       -5.21369146739174        4.01218999565392
H           -2.21460414120987        0.46199472469602       -0.88083673304114
