47
 energy: -79.517349023405 gnorm: 0.000676621174 xtb: 6.5.1 (579679a)
C           -4.01773945079254       -2.38961046795337       -0.16259242301330
N           -2.85299324967733       -1.49538080937014       -0.14912943187846
C           -2.91990903987192       -0.12696231978030       -0.04934074935712
C           -4.24247588694438        0.62494920436756        0.02757238980911
C           -3.96688704414787        2.10350884738427        0.34752663113149
C           -4.96719571780007        0.52490743408173       -1.32255781522529
N           -5.07924729369755        0.04265419077895        1.07245017708999
N           -1.85179615598733        0.60861221400589       -0.05174653636829
C           -0.59902340955910        0.06396563951234       -0.14010523459145
C            0.46527640934720        1.05490457975412       -0.09115784687046
O            0.35706447200861        2.24021528418758       -0.04422189701453
N            1.87737228932121        0.49031997237597       -0.10442879016733
C            2.34408533303347        0.47175409501368       -1.51347497945416
C            2.75914400584648        1.31668991894677        0.78407350207194
C            4.11459586861474        0.67416342163099        0.90517590004808
C            4.25116584855196       -0.52101371312651        1.61125321436531
C            5.49444495545359       -1.11962150682983        1.74484144294388
C            6.58792059947701       -0.49766736957685        1.16621108825708
F            7.79087447150961       -1.06505241201897        1.29593585138405
C            6.48555164432874        0.68778102252373        0.45975393844639
C            5.23347941529696        1.27154691648429        0.32844591568546
C           -0.46350038558015       -1.29467693031928       -0.25386270136864
O            0.70521975297515       -1.93004088817370       -0.36785263577145
C           -1.64655044400435       -2.14726372743693       -0.27280971810127
O           -1.54456622970642       -3.36116366752661       -0.38837705313106
H           -3.74837235731017       -3.29702284740426        0.37846300678742
H           -4.25796124811024       -2.64496874218816       -1.19506167832234
H           -4.86147193096834       -1.90301507394795        0.31979687318263
H           -3.41585637716630        2.18793354056849        1.28260373846192
H           -4.91386197109776        2.63171938545583        0.44486317103829
H           -3.38163377088687        2.56314931209777       -0.44765630278281
H           -5.25393853993547       -0.50180517003264       -1.53866099382947
H           -5.86734027933943        1.13733549948571       -1.29334396206523
H           -4.31956154749878        0.88688902188057       -2.12010591145340
H           -5.96950955344502        0.52212447224823        1.08364084141845
H           -4.63883252016270        0.18044847801928        1.97195303575250
H            1.86868849920217       -0.47441430893501        0.23682802998403
H            1.69559729932815       -0.19702807469718       -2.07342424904444
H            2.29692639475515        1.48279354924269       -1.91098273495787
H            3.36620409935430        0.10197207766865       -1.52145303434824
H            2.25546138298099        1.36606484945614        1.75164270731236
H            2.81219607077649        2.31529619371463        0.34891465869686
H            3.38029162409837       -0.98333824615263        2.05950977458992
H            5.61356884115323       -2.04772632130472        2.28834719800576
H            7.36428637142924        1.14174108093490        0.02022792880976
H            5.12777633287235        2.19870209635673       -0.22174219828036
H            0.53303142197331       -2.89437170140346       -0.43312313787625
