43
 energy: -83.190962050595 gnorm: 0.000595452050 xtb: 6.5.1 (579679a)
C            5.95646230181737       -1.49391243775288       -1.25362232863275
O            4.69572337660071       -0.93580057765713       -0.86218713553050
C            4.50706600413519       -0.74912071007818        0.43488549129047
O            5.33885173571128       -1.03522109807352        1.27869656825777
C            3.19577155533100       -0.14854138730623        0.77388949579481
N            2.33524020438121        0.11312229170073       -0.26505893708262
C            1.19657102477243        0.65069468370318       -0.00212583987563
C            0.25342343182638        1.00455879597113       -1.13081599838425
C            0.39861957766044        2.49445381065136       -1.45459545975351
C            0.53839941685731        0.13632727014610       -2.35801013983441
N           -1.13315974927293        0.78754145619219       -0.68275057588286
C           -1.54627384896275       -0.39235422048552       -0.21244195842404
O           -0.86572460103017       -1.37826098437674       -0.01565781139179
C           -3.01637051371590       -0.39277667478071        0.10542941207753
O           -3.77397553783549        0.68649855614224       -0.01702183877507
C           -5.01017677084199        0.32183836062204        0.36650729074769
C           -6.11545368786714        1.29327539284623        0.35912313120096
N           -5.03608849091953       -0.93167771264104        0.71518358375389
N           -3.77437557446605       -1.36822380366191        0.54798065097128
C           -3.46833862999530       -2.75571922160463        0.83047590487628
N            0.82016486206574        0.99230091379777        1.26334033364185
C            1.58084254811678        0.75708373114227        2.39566982671067
O            1.17092377491503        1.06051687760845        3.50031606487666
C            2.87392230912309        0.13589651530983        2.07959178024612
O            3.67303620923070       -0.10993874032895        3.11536380543173
H            6.09560149712722       -2.46930956478283       -0.78226030727320
H            5.92719458391389       -1.59428497157476       -2.33655915198753
H            6.76717810248913       -0.82622857532028       -0.95331662890374
H            1.42312973567699        2.70322779716979       -1.75962910770250
H           -0.27504859428781        2.76466776796455       -2.26537059906522
H            0.15924602301722        3.09359546893312       -0.57784616805458
H            0.43697265822302       -0.91781713907275       -2.10511270108951
H            1.55759893814236        0.32141937548629       -2.69412378836484
H           -0.15839328165404        0.38531266362604       -3.15487019244260
H           -1.80571605333361        1.51655069209961       -0.84899785166595
H           -6.24632125009806        1.68971150703715       -0.64846867423175
H           -5.86848135711895        2.12996758973646        1.01422526848699
H           -7.03344134814746        0.81593495055629        0.69421930100250
H           -3.81818061226400       -2.98342551550084        1.83604166970585
H           -4.00107579445911       -3.37330973445443        0.10811418281463
H           -2.39484725308323       -2.90464634084740        0.74615922903357
H           -0.07779805576814        1.42487753481048        1.40741437565504
H            4.51730113398690       -0.51880459295188        2.80821682777291
