43
 energy: -83.867819521715 gnorm: 0.000149734481 xtb: 6.5.1 (579679a)
C           -5.10950706031611        2.07799713495503        1.39383630881553
O           -4.23523669980557        0.98061295052252        1.38712516338166
C           -3.86657266683104        0.49485472634207       -0.01045097874929
C           -4.89549533369548       -0.65515955063280       -0.32764751253541
O           -3.81825181715498        1.42283725102177       -0.89561106178121
C           -2.48267285740977       -0.24151867509887        0.26163952860089
N           -1.48955198577088        0.07407866867090       -0.63191915502493
C           -0.34034294017813       -0.50001105584617       -0.56077781879412
C            0.72002073139822       -0.21763479367909       -1.60825334142955
C            0.50890087056329        1.16894842219085       -2.22276374259395
C            0.63832932505676       -1.30776840747373       -2.68243810146264
N            2.05086519793245       -0.30698361505559       -0.99813926699239
C            2.43960467359316        0.47681254675385        0.03118668723318
O            1.71722139940317        1.24345829306149        0.64154176201719
C            3.87793054517681        0.26582855194828        0.34455416131965
N            4.68760781411708       -0.53515031082105       -0.28226370893397
N            5.90450727760995       -0.41276639116858        0.31748467672817
C            5.76043412350485        0.45638687072117        1.27194028210689
C            6.79379337358229        0.93845286006275        2.21437305253906
O            4.50410524682474        0.92090403560058        1.33955938002483
N           -0.04631846529905       -1.44136658648286        0.38212178080065
C           -0.95848251318634       -1.83948919511427        1.33446628634495
O           -0.67757894506323       -2.69179415048442        2.18093684218406
C           -2.24003018480711       -1.18019938343806        1.22655304129716
O           -3.17042183838412       -1.58034308191280        2.14094769842509
H           -4.80442771290863        2.85239081981243        0.67118274772332
H           -5.09466077440447        2.51881436302390        2.39665256157511
H           -6.14853591210833        1.78746113007284        1.16319057622795
H           -5.85896849431870       -0.19798786522820       -0.54669896531774
H           -4.55327381138134       -1.19516056377347       -1.20886064636869
H           -5.00117973928896       -1.34341724087659        0.50738559800613
H            1.25419877575930        1.34957381925170       -2.99413974852888
H           -0.48664170932579        1.21504949839134       -2.66362977997276
H            0.59102175337114        1.93894625102230       -1.45656398061316
H            1.39462014004725       -1.13841771249197       -3.44637365710307
H           -0.34534889599282       -1.29110861753650       -3.14972961988685
H            0.80011025705055       -2.28693958294651       -2.23533284022303
H            2.75298600597203       -0.84829484423770       -1.47416868183161
H            6.48920090913126        0.73384579995816        3.24062278731749
H            6.92191479249375        2.01560591076656        2.10843559985687
H            7.73651150452436        0.43861710398881        2.00709702826059
H            0.85558947167653       -1.88738810715570        0.38406780982930
H           -2.77597083116073       -2.27257527669397        2.69467324753858
