42
 energy: -83.633068745835 gnorm: 0.000697946975 xtb: 6.5.1 (579679a)
C            6.85612270116360       -1.03641065283523       -1.15700547883054
O            5.72993716485440       -0.98917004876435       -0.29656161333961
C            4.63648271751823       -0.34301400131541       -0.78880275535718
O            4.66850795636399        0.15437417481331       -1.91085441235070
C            3.49565874610374       -0.30435391608145        0.10818503248529
N            2.41404792187668        0.37646495307834       -0.43031229862850
C            1.33004953364711        0.50941131368809        0.23996006243383
C            0.15711906578479        1.31748804600734       -0.29029422297970
C            0.31517770274661        2.74310664311196        0.26962261433109
C            0.20101781039313        1.33171211500288       -1.82719993161978
N           -1.06003514739364        0.69169447430229        0.22880886127468
C           -2.34024948744617        1.19814964635255       -0.25938283498049
O           -2.44730086011609        2.39660762599297       -0.63678424671565
C           -3.36074333951568        0.30233441944929       -0.00527014119015
O           -4.64378999896302        0.44556128809996       -0.63382707185109
C           -4.99388631194379       -0.79577161861462       -0.97102760931326
C           -6.26500664320394       -0.99121879736641       -1.72616449982236
N           -4.21385896656553       -1.74779186528359       -0.62108132630475
N           -3.12930736838862       -1.13799018730593        0.12761477425177
C           -3.30035365143728       -1.59664390351290        1.52032280206338
N            1.19951324036525       -0.00250674520252        1.51457534048618
C            2.17653911603170       -0.69896452942265        2.16550114885740
O            1.97482533501200       -1.12722502449634        3.30339573306043
C            3.47106202518930       -0.88037706349898        1.40462821379494
O            4.40212395918302       -1.50446753203339        1.95442847732370
H            6.61512720356991       -1.56282913582014       -2.08651134852939
H            7.64328551321104       -1.57139089274587       -0.62681516004661
H            7.20036203618948       -0.02707377510061       -1.40553209688843
H           -0.44353831146989        3.40721015436162       -0.14039609564682
H            0.21792711180860        2.72501540232994        1.35494558189522
H            1.30087226353807        3.13050644841060        0.01016818153481
H           -0.58607507550546        1.97252774678759       -2.22205478777768
H            0.06698872762194        0.32175805559960       -2.21558287687524
H            1.16826409351487        1.70746074500263       -2.16204154702115
H           -1.03049990481128       -0.31409040332967        0.05710101551322
H           -6.23120919679202       -0.45020628256653       -2.67172964084782
H           -6.42024756964779       -2.04980910159312       -1.91963362958634
H           -7.10206998524841       -0.60450702489045       -1.14581079716051
H           -4.27970839151929       -1.31215921443207        1.91741793481080
H           -2.51638392206614       -1.13896216818282        2.12123931921642
H           -3.19893894319533       -2.68131798080048        1.54598444289806
H            0.32219312954952        0.13686761280121        1.99870788744184
