42
 energy: -83.586326903162 gnorm: 0.000179804613 xtb: 6.5.1 (579679a)
C           -6.56703278442018        0.70944113782489        0.32915122269246
O           -5.35065154151459        0.09523198339089       -0.07398559175067
C           -4.23544586527468        0.90487064582753       -0.02293265977899
O           -4.36310101218873        2.07200945091934        0.32722096684132
C           -2.98933842507948        0.25350737458459       -0.39863890829257
C           -2.83017748692119       -1.05807433546030       -0.75915510258543
O           -3.82904579563920       -1.98848588446016       -0.79223494498684
C           -1.46259782495430       -1.60088364175528       -1.30659355527706
C           -1.21437659691760       -3.00168832026252       -0.61529416616926
O           -1.45875691953962       -1.65995735630607       -2.62258947250369
N           -0.37728426209946       -0.71388238469550       -0.73779116076178
C           -0.69181459340610        0.50180370307100       -0.40997001170739
C            0.48609578356168        1.43410844013345       -0.04819202383179
C            0.53409049745430        2.61201159923154       -1.02985870966276
C            0.31414593705085        1.94124545408551        1.38942561238261
N            1.69707582520867        0.62770214945832       -0.16352349196747
C            2.93455765948920        1.00820489961348        0.13959278466968
O            3.27990254040152        2.13181003407239        0.50724699241350
C            3.90319627628029       -0.11336458826304       -0.02066444844842
N            3.63264241351971       -1.31199300812058       -0.45064033691662
N            4.80253496585433       -2.01843523402482       -0.41600211436089
C            5.70821922184922       -1.20998757310117        0.03325805432483
C            7.14032311818325       -1.50344235774744        0.26690686203870
O            5.21185648417598        0.00981401848200        0.30118188711409
N           -1.87834738684585        1.10061461480905       -0.28881330738005
H           -6.49593921599057        1.06694785697265        1.36146620092719
H           -7.34916779881641       -0.04430609073356        0.25673531832963
H           -6.80906039792047        1.55623147042840       -0.32110658413854
H           -4.68353594346024       -1.62899099657688       -0.51186362858097
H           -1.96026665407004       -3.71725206021930       -0.96047004118636
H           -0.22441962668096       -3.35617006928087       -0.90299516563722
H           -1.26453963974307       -2.91544925564000        0.47048286875420
H            0.73724583637904        2.25422368908987       -2.03993809380830
H            1.30846533709834        3.32536348932355       -0.74768364429113
H           -0.43396381218871        3.11435508954196       -1.02140206525093
H           -0.67259059295256        2.39750563945383        1.47926917191164
H            1.07418202778816        2.67932662062915        1.64425406306308
H            0.38085687868381        1.10969031562333        2.09136949214158
H            1.49507578824314       -0.34379812316245       -0.44522877927232
H            7.35452964548260       -2.52830394889395       -0.02498089682721
H            7.38234847728200       -1.36910496720872        1.32078052387226
H            7.76410946263776       -0.82244748064277       -0.31083911610983
