42
 energy: -82.938432232602 gnorm: 0.000648255586 xtb: 6.5.1 (579679a)
C           -7.16683653242044        0.65423679778564        1.12223444845145
O           -5.98219523852553        0.88425976709679        0.35856424720180
C           -4.94239349426823        0.09397143218422        0.62981751014807
O           -4.98481651416440       -0.77972806835921        1.47250714038415
C           -3.73463998015019        0.37925390723629       -0.18612980780863
N           -2.69869904049744       -0.44185103460635        0.09385479780702
C           -1.55894633038283       -0.31701872212696       -0.51744170607837
C           -0.44142365924357       -1.28877613961724       -0.22316259828136
C           -0.71036866877021       -2.02757532945249        1.09096198464006
C           -0.34399757789527       -2.27031799050034       -1.40280590823827
N            0.80234630590410       -0.51547423116315       -0.10947721259445
C            2.01260728445071       -1.08986628931104        0.07110418022819
O            2.24907109012366       -2.28218504002446        0.07866272481178
C            3.06398795656645       -0.05504303925848        0.26891388947837
N            2.83293868547243        1.27043921351442        0.28377636607477
N            3.94146218263994        1.87555414011267        0.50621690021240
C            4.98948240397066        0.89861161374036        0.65501632674709
C            6.04498524660071        1.07345960446059       -0.43996439540801
C            5.59148839763793        0.97145707752639        2.06098357192587
O            4.31840682498743       -0.35064720134544        0.48288103481710
N           -1.35107907241737        0.63116164694462       -1.47057087273028
C           -2.31176492946826        1.54490648750022       -1.87410870727644
O           -2.04998395549435        2.36586472470890       -2.73069001625030
C           -3.65209917815434        1.42151957709021       -1.17585010161787
O           -4.55953257275630        2.19155229270914       -1.48291902780368
H           -7.89975777266501        1.38883890918083        0.79384874173446
H           -6.95842686359910        0.77770959388616        2.18798618528100
H           -7.53953868982881       -0.35757616724219        0.94470273556754
H           -1.65995560829479       -2.55520316411040        1.01673984670169
H           -0.76389034277256       -1.31633075519006        1.91327420864070
H            0.08564432936175       -2.74331628164149        1.28408577255116
H           -1.30965316471859       -2.75211319393692       -1.54787395419014
H            0.40494102099302       -3.03204563731121       -1.19858102913732
H           -0.07182623612192       -1.73529724053824       -2.31006428078616
H            0.73708894835146        0.48553073984003       -0.00387581851112
H            6.78594624832217        0.28280217909562       -0.35085785781156
H            6.52312492850805        2.04245541685545       -0.32175585643172
H            5.56712282387872        1.01722622116680       -1.41530638417503
H            6.32952599141716        0.18104827705316        2.17490828386135
H            6.06524001914930        1.94045965770620        2.19517759861644
H            4.80247321563511        0.84352053197894        2.79884268276834
H           -0.45605848135882        0.69452571636160       -1.92900464351305
