42
 energy: -82.959008021261 gnorm: 0.000566610407 xtb: 6.5.1 (579679a)
C            3.93781927686280        2.23959191137329       -2.92681373617229
O            3.87403961144905        1.22425001151342       -1.93066928371174
C            2.67980526922463        1.06319770919380       -1.32637096019284
O            1.71393898430935        1.75440323188612       -1.62485253261887
C            2.64290491720014        0.01767008222366       -0.31042735463312
N            1.38684224414211       -0.12343283371547        0.23985042584951
C            1.15927033110124       -0.97937180530646        1.17013333284703
C           -0.27440263839405       -1.09889649894770        1.64513459458441
C           -0.44032128137616       -1.43968892260718        3.11824699960503
C           -1.00522201600402       -2.11145483423657        0.75799543043803
N           -0.82788517862846        0.28542346482258        1.32877707715141
C           -0.45600651565699        1.33138394487948        2.31157511273154
C           -2.30418152984177        0.30635382556653        1.13313876214267
O           -3.03453320430063        0.21568355492029        2.07348161523144
C           -2.62584222884879        0.47257975312772       -0.26387080319263
N           -1.75872987044381        0.56164801614326       -1.24101975482899
N           -2.45907666649696        0.70503230653794       -2.37417844133030
C           -3.72624528608813        0.69881723544322       -2.04233608408709
C           -4.88978003984979        0.82840749521697       -2.93876890920611
O           -3.88781575125696        0.55419603441482       -0.72695340123232
N            2.13112608554450       -1.80947399796502        1.65962662048673
C            3.43548496541501       -1.78422907547767        1.20451079953540
O            4.25734693087957       -2.54655097012780        1.69190405390879
C            3.74017881718301       -0.78271614649363        0.10567954944863
O            4.89503023722412       -0.72852068874777       -0.33977951362728
H            4.95092779945477        2.22901176672950       -3.32722339315706
H            3.71841330620130        3.21877646129273       -2.49069669158164
H            3.21806814724438        2.03868023522622       -3.72614996004726
H           -0.20287733477156       -2.49180982554878        3.26535138677517
H            0.22128968884099       -0.84330171555326        3.74272309378703
H           -1.47208514607175       -1.27574075233447        3.42487922266214
H           -0.51487410985420       -3.07818690827660        0.85831088418939
H           -2.04568113523427       -2.21420919175701        1.06001594051596
H           -0.95891430674819       -1.79999277465527       -0.28472534652942
H           -0.32203246350693        0.51562946407047        0.43112908519757
H           -0.71887787812238        2.29563236524811        1.88231685465566
H           -1.00698083722022        1.16943935121872        3.23295113752368
H            0.61625627682944        1.26919856964539        2.47801584363607
H           -4.55401868114935        0.91943411320690       -3.96877267605842
H           -5.53366249503932       -0.04497764685818       -2.83510503015893
H           -5.47334660966121        1.70652457406903       -2.66178888950327
H            1.91465031548728       -2.46840888936736        2.38788393896171
