42
 energy: -83.656315014735 gnorm: 0.000464977992 xtb: 6.5.1 (579679a)
C            3.64963166959856        2.80574768627667        0.02735736885175
O            3.08274100458058        1.50212101967600        0.08410425223508
C            3.88482644705292        0.53379573045351        0.57466652673133
O            5.01577711339651        0.77955840623169        0.95010677097836
C            3.24297049569018       -0.79622986511204        0.58103607512707
N            1.94283826297189       -0.86664808718835        0.15543875806021
C            1.37379172044719       -2.05137738799198        0.12333114854057
C           -0.06289302172011       -2.15172704287572       -0.38452543917434
C           -0.02987407847719       -2.90054358917135       -1.72858325519103
C           -0.89456365826040       -2.94411931992232        0.64113793234028
N           -0.58616800805128       -0.80718341980364       -0.57258242712562
C           -1.93228917692169       -0.56586812680361       -0.84363287260291
O           -2.67418595126535       -1.44368585212214       -1.33336870520358
C           -2.30430784406663        0.77256666477744       -0.55028032901325
N           -1.52072393180851        1.68111577953325        0.00762569563001
N           -2.15132864891689        2.80910052206971        0.18610449651974
C           -3.52347650766545        2.62444970445077       -0.31143749734109
C           -3.79927211869747        3.61523171165542       -1.45688144464339
C           -4.52590288824507        2.83546169106252        0.83777297028236
O           -3.59401124945438        1.28866509957736       -0.78729014690540
N            1.92591387170301       -3.22092744136031        0.46623297027615
C            3.19971155360376       -3.23145947450673        0.91171082333323
O            3.81794454086432       -4.25810667079306        1.26870892430753
C            3.89195586541148       -1.94119602059943        0.96627903342449
O            5.17266903150425       -1.99695374365784        1.40058783408773
H            3.88015264992628        3.16881891369344        1.03298523755001
H            2.91465538944192        3.45674082442714       -0.44328396418197
H            4.56972335718410        2.79805913991600       -0.56360448114349
H           -1.04026080063741       -3.06495133540150       -2.10062236093461
H            0.52806432524968       -2.31996205861359       -2.46382765244899
H            0.46164955685356       -3.86389007718575       -1.59323984365327
H           -1.90333748172196       -3.11603578524246        0.26848213255674
H           -0.41557174533139       -3.90595119953501        0.82341747551117
H           -0.95089944340153       -2.39649078376710        1.58196610652466
H           -0.12211909459605       -0.09675913843025       -0.01117774680298
H           -4.80663278047185        3.47528218525009       -1.84495317556730
H           -3.69233940523983        4.63473842447736       -1.09229466920792
H           -3.08220028945310        3.44797195053990       -2.25922542079160
H           -5.54483402844900        2.68913422434309        0.48363334176224
H           -4.31932293675231        2.12040383817267        1.63283208995795
H           -4.42319639077222        3.84415407607874        1.23213248304798
H            5.34469462489829       -2.94305017258412        1.59132798428094
