43
 energy: -83.128021015796 gnorm: 0.000933386374 xtb: 6.5.1 (579679a)
C           -3.29000605676176        2.41130240155587        0.65065625457644
O           -2.84888970018397        1.10572962959107        0.20081350892674
C           -3.72301556706713        0.15600059119487        0.18145306243008
O           -4.88035829922090        0.18344179262299        0.44421144356284
C           -3.03220645029213       -1.24081077639880       -0.28762406573970
C           -3.99247169227692       -2.35833130116706        0.13969273725486
N           -1.80449463794634       -1.31543743487098        0.42704111401626
C           -0.68351010813856       -1.07321929889369       -0.13284602193364
C            0.59644213477024       -1.20573048915596        0.66017147421559
C            1.15364212023677       -2.61072404843658        0.37695753951342
C            0.32200241672728       -1.00258497243273        2.15308993286555
N            1.52172757406697       -0.18088511693637        0.17315702836408
C            2.80344016804224       -0.08564221189855        0.62989619651424
O            3.37108917216216       -0.91395391942618        1.31105733230810
C            3.43181192591967        1.16870658646145        0.15652700479763
N            2.85611939804427        2.10114148414906       -0.54365705013593
N            3.78693259745219        3.07255887287271       -0.74281667260685
C            4.87307753220030        2.67357437583608       -0.14852852791378
C            6.17143900447875        3.37799623521360       -0.07072315746146
O            4.70933287461639        1.47916242513381        0.43695913959058
N           -0.54767326402163       -0.77047519404135       -1.47734374476776
C           -1.58498239103580       -0.72264674642422       -2.34887438877774
O           -1.51050557257540       -0.49276045877462       -3.53381581365649
C           -2.90220781864992       -1.04542319041981       -1.71999891215268
O           -3.91488686017289       -1.10564168066317       -2.49159668510102
H           -3.49359663853858        2.36941430632551        1.72088839356146
H           -4.18932834623469        2.69681394247069        0.10449085810419
H           -2.46859019456609        3.09024277367088        0.43893152987308
H           -3.55485968826597       -3.31740742757811       -0.12672047059744
H           -4.13404034600779       -2.30898517072899        1.21684728557110
H           -4.94740538039366       -2.23277959808516       -0.36563968190981
H            0.39340659320190       -3.35234488482244        0.61571512960729
H            2.03384012688752       -2.79306232071300        0.99012779714756
H            1.42221950236548       -2.69907063274767       -0.67382648402314
H            1.24901115351510       -1.11096115495844        2.71355467021184
H           -0.39615658310214       -1.74512017283629        2.49570086677549
H           -0.08841993268798       -0.00866619803444        2.32104511681366
H            1.12045303196251        0.66264197453427       -0.20853095506673
H            6.96391262311128        2.74082659812780       -0.46406476354883
H            6.40696584560554        3.60789350274352        0.96928962331031
H            6.12122998333208        4.30032137319771       -0.64492443360743
H            0.37923779955235       -0.60768253952388       -1.85193359958778
H           -3.69972905011322       -0.89741992573812       -3.43024561133471
