46
 energy: -87.015038859182 gnorm: 0.000947312238 xtb: 6.5.1 (579679a)
C           -2.49093492493796        3.00429913885179       -2.28495976325121
O           -2.73273790113357        1.81180543994656       -1.55145694617866
C           -1.74489015116555        1.43744882347728       -0.69048120122490
O           -0.72448641528391        2.11122644271846       -0.57282154020041
C           -2.02307408002647        0.23240151177546        0.05238379127831
C           -3.00208294483810       -0.71005433987329       -0.16920823220026
O           -3.98676841683200       -0.58709697520460       -1.10120389213920
C           -2.93731511612489       -2.00164803538087        0.48394626374421
O           -3.91400054209834       -2.79810069092416        0.47478243047575
N           -1.70769745013868       -2.33339424359744        0.96658016666954
C           -1.54443128733547       -3.70086073471796        1.45568976597143
C           -0.65841815142263       -1.40334704983177        1.14365567379578
C            0.58295413268079       -1.60674745902521        0.25005099881459
C            1.52512604946288       -2.65490653412615        0.86771901068302
C            0.23580024830243       -2.00499901284671       -1.19976477429398
N            1.27908809245135       -0.31465141894925        0.23432896330339
C            2.41580112169364       -0.04547292974100       -0.40611603666159
O            3.09228560021876       -0.83378214528892       -1.05894016571859
C            2.82440812147059        1.38062154252712       -0.21777820909479
N            2.24280892304723        2.26636093569578        0.53101844733597
N            2.96604266379208        3.41880623199248        0.41556026545650
C            3.94392377464017        3.16009302954800       -0.39459560159787
C            5.01462596165581        4.08011972057698       -0.84035417689840
O            3.91430095235158        1.89033185179300       -0.82844269595036
N           -1.12865084060547       -0.03336327174081        1.15580985345537
C           -1.74089400801700        0.31043689519570        2.45154273300280
H           -3.36040381743271        3.17073326746194       -2.92000522743239
H           -1.59396505662946        2.90418836159167       -2.90532451322021
H           -2.35878221069346        3.85556459022205       -1.60886461079524
H           -4.53073454796152       -1.39461280685019       -1.04171511675905
H           -0.81357954472196       -3.70965721894378        2.26219385227713
H           -2.50600609409516       -4.05884737360504        1.83043807379940
H           -1.21474411224930       -4.36486954732559        0.65280023537030
H            1.07262765883552       -3.64243348921414        0.81343285693936
H            2.47500512329255       -2.68636754276608        0.33524622014854
H            1.70928929189806       -2.40884991818919        1.91291013731252
H           -0.35016340752250       -2.92257853879948       -1.19626714223722
H           -0.34724700198740       -1.21593045998035       -1.67480068966827
H            1.14364552115950       -2.17463146269452       -1.77780693513096
H            0.76763066437004        0.45473243680867        0.67285764351809
H            5.97937414269493        3.74069729478485       -0.46331147227937
H            4.81544640535641        5.08140010420689       -0.46671563340340
H            5.06526577316661        4.09807997246641       -1.92838779887005
H           -1.96105706673966        1.37911373806432        2.47323713487968
H           -2.66824024977123       -0.25010818440973        2.62669617251865
H           -1.02414288276195        0.06885005433120        3.23643968444362
