9
 energy: -15.745794607030 gnorm: 0.000925619206 xtb: 6.5.1 (579679a)
C            1.11494930664633       -0.08172814532391       -0.09266099541693
B           -0.45658562011414       -0.08408441629059        0.02182043105902
O           -1.13146987281574       -1.25297159758144       -0.19883829934178
O           -1.20174463617709        1.03072532643525        0.32198909892726
H            1.56115421627499        0.79116895786951        0.37809449768009
H            1.41080617950821       -0.07969848960027       -1.14246475502849
H            1.54044853620225       -0.97638153094301        0.36064189672951
H           -2.08455197458395       -1.20539302140399       -0.12660380922750
H           -0.75300713494090        1.85836391683841        0.47802193461884
