33
 energy: -58.548854546804 gnorm: 0.000980605433 xtb: 6.5.1 (579679a)
C           -2.41797432586021        2.20513839813852        1.26158486825186
O           -1.58284291469793        1.34726170468755        0.48986671125744
C           -2.21828871327456        0.42588567246444       -0.26577270408480
O           -3.43977004187796        0.34402456893618       -0.28684125276811
C           -1.29928784312484       -0.60759791400728       -0.90116052038877
C           -1.82257951431174       -1.01780591037564       -2.28465468701223
N            0.06352041083408       -0.11896966369144       -1.03791703112584
C            0.89863630722700       -0.35583909594093       -0.09610987727863
C            2.29733066098954        0.25047419782048       -0.19584751541707
C            2.35739064194397        1.46880236606501        0.73434107900952
C            2.58056540549213        0.67101375817611       -1.64208512631165
N            3.33291143884201       -0.69588231781722        0.21614596296859
N            0.61956341169763       -1.05811871608678        1.02990756727295
C           -0.54694915192747       -1.92411072697227        1.13369553986236
O           -0.52326262235197       -2.76724105425738        2.06546648925016
C           -1.46155119039364       -1.70603706672089        0.13858998200940
O           -2.66564944162053       -2.44041305900860        0.05689669964485
H           -3.10876957930519        2.75143211277598        0.61264490401556
H           -1.76474828784181        2.90605101974781        1.77883012306618
H           -2.99725023772713        1.62904656266970        1.98901677694491
H           -1.69147205067993       -0.19574326672473       -2.98785033033576
H           -2.87955953150911       -1.27376352427890       -2.22742297215732
H           -1.26461453802065       -1.88140858162998       -2.64538436672503
H            1.62433859294299        2.21357962479763        0.42326296515190
H            3.35110352036127        1.91476536516363        0.70397524404883
H            2.13852751621885        1.17033536143721        1.75983219401088
H            1.85647545761157        1.41828368768667       -1.96660907129538
H            2.50779446107432       -0.19205378807624       -2.30395174688579
H            3.58487300689800        1.08703527235631       -1.71422221167065
H            3.17854919487975       -1.60056215700703       -0.21002882784396
H            3.33761213731465       -0.80971903756550        1.22005833977679
H            1.37607765961157       -1.30326833536740        1.64688325007640
H           -3.42069883941441       -1.85459845738916        0.23443554468420
