43
 energy: -83.116450490773 gnorm: 0.000477892132 xtb: 6.5.1 (579679a)
C           -6.11588559195079        2.22388132300385        0.92367599630701
O           -4.95110991721197        1.45778697864215        0.59441697295630
C           -5.01438862467234        0.72790264502922       -0.51623339644313
O           -5.98211596560970        0.68877995228632       -1.23647668666463
C           -3.74864852776477       -0.03628104918010       -0.75213720651762
N           -2.72825987477970        0.19698450908424        0.12980465389500
C           -1.60620819113402       -0.42804530311934        0.00485539161787
C           -0.51385707102755       -0.20285771732728        1.02393824975688
C           -0.72031617866157        1.13130894909304        1.74737545285289
C           -0.53219788993913       -1.38374016016427        2.00787474468564
N            0.77182265085769       -0.16781622025607        0.30761311807514
C            1.95423030090953       -0.08840050795903        0.94148160371468
O            2.15633872332771       -0.07120894067485        2.13212430045055
C            3.08745011596525       -0.02756105899419       -0.05579729169214
N            2.93222810439897       -0.00144490206269       -1.41965895967203
N            4.08266021130768        0.05050375906706       -1.93634108652603
C            5.07887153689315        0.06011034596128       -0.91589778408715
C            5.96144978848638       -1.19238996731909       -1.00993503959579
C            5.89664863935454        1.35734904479527       -0.95676258235316
O            4.31258029444721        0.01127924439425        0.28537356398154
N           -1.38774601057889       -1.35018101486345       -0.97681073697951
C           -2.33058977061993       -1.66078535476777       -1.93436696483383
O           -2.12806316164124       -2.47397703751347       -2.81778510587569
C           -3.59082319976188       -0.93073310144011       -1.78302435195871
O           -4.53284459603180       -1.20341748123526       -2.67906086375649
H           -6.32715903268014        2.94292554593548        0.12877609868990
H           -6.97510500164463        1.56140398199501        1.05297510768226
H           -5.89214683398162        2.74142265614889        1.85408019368461
H           -1.70095043713999        1.13035064658545        2.22075744158810
H           -0.67005941434673        1.95121994620964        1.03314858344703
H            0.04772786492511        1.26544253116576        2.50602752035017
H           -1.52739731293694       -1.46703728337746        2.44184932216164
H            0.19094067726981       -1.22533214091788        2.80445735657070
H           -0.29267720147046       -2.30554719571198        1.48265484464854
H            0.76180395019202       -0.09676711984505       -0.69741919444470
H            6.49947227717963       -1.17170721684853       -1.95436722567950
H            6.66277095109116       -1.18862991333438       -0.17877385916202
H            5.33114271793433       -2.07752540980011       -0.95921637388662
H            6.44422509107700        1.39677208197008       -1.89507859266416
H            5.22330947496010        2.20843667808051       -0.88309673441877
H            6.58953560649920        1.36024425344117       -0.11855003660113
H           -0.51337418751305       -1.84685962127021       -1.02898082617020
H           -4.20328398397766       -1.86585635490401       -3.31334061713224
