47
 energy: -79.519515854139 gnorm: 0.000584538713 xtb: 6.5.1 (579679a)
C           -3.70816929955605       -1.99831398340847       -0.98674857997840
N           -2.47944562997912       -1.36095514346437       -0.47918197772472
C           -2.41590167383622       -0.14807000760767        0.11027218398920
C           -3.53253146517181        0.86846621011715       -0.18255709436718
C           -3.57960678701020        1.00050467300534       -1.72095603887641
C           -3.34609012738584        2.29995578373320        0.34528367846286
N           -4.79864847906066        0.34329499902518        0.31420899467961
N           -1.28980703521521        0.15893791127701        0.76695611788678
C           -1.29447896943366        1.09771800276366        1.90495001476731
C           -0.09730324525429       -0.54451358910491        0.60073895092699
C            1.17952834852944        0.12555807100393        1.06315881167757
O            1.27856642694600        1.34361932342562        1.08297019346840
N            2.15988892665150       -0.71094892051606        1.40721249494413
C            3.47602063031407       -0.19247147045720        1.79157769291215
C            4.32770674889668        0.02361892033924        0.55982533349681
C            5.17442098352650       -0.98459347925540        0.10614567343077
C            5.93546379791680       -0.80348190479592       -1.04048527250391
C            5.82602882862282        0.39863466919562       -1.71604921817928
F            6.55499531318033        0.58164106025866       -2.82721344708302
C            4.99478058403412        1.42031057155873       -1.29273717035537
C            4.24177990524233        1.22285300093833       -0.14445557424118
C           -0.12691470769431       -1.70266749474521       -0.10593924013567
O            0.95993688462034       -2.43733285607136       -0.35736797768685
C           -1.38517212190450       -2.22581812580517       -0.60176086001043
O           -1.49091583898956       -3.32078978560957       -1.11644539672100
H           -3.61706202842989       -2.14353749551478       -2.06208034490256
H           -3.77772214198437       -2.97358179752554       -0.50366251510033
H           -4.57629065051968       -1.39903647402007       -0.73559925322428
H           -4.40640421713112        1.65806057965101       -1.98301908022250
H           -3.72810574021625        0.05085853487741       -2.22392263214747
H           -2.65130190100963        1.44487884857204       -2.07721564477056
H           -3.52172000606229        2.36864905331479        1.41475023185257
H           -4.09673652678089        2.92234550172807       -0.14166652849581
H           -2.36511459052643        2.69713280055138        0.09458367547620
H           -5.54209977046589        0.96717346942934        0.03039837213266
H           -4.77876762923597        0.32052017310836        1.32391678916402
H           -0.61249669752400        0.70262650835872        2.65418936578576
H           -0.95806139702764        2.08577997184324        1.59939077344283
H           -2.29105410833257        1.12870778913094        2.32902999570024
H            2.04504844652059       -1.70743305730103        1.34313546982225
H            3.32145107275526        0.74922339354475        2.32568310575001
H            3.93215203628983       -0.92254943904340        2.46231468290471
H            5.24117186545408       -1.91880195328041        0.65051577740326
H            6.59735788253708       -1.57828446932253       -1.40418265209747
H            4.93776512405509        2.34569317094137       -1.85110728969528
H            3.57786866865975        2.00438209248448        0.20473806465072
H            0.70598931098477       -3.25796463732415       -0.82028365621071
