42
 energy: -83.597799961263 gnorm: 0.000391525875 xtb: 6.5.1 (579679a)
C            7.09383089850836        0.40702842708142        0.22125406636901
O            5.86709865275984       -0.17216409656185        0.66053950446641
C            4.75683589033884        0.21112319477404       -0.02775892297316
O            4.84253940682966        0.99119975286043       -0.95936434527276
C            3.50420729180343       -0.38191078613937        0.46692240551996
N            2.39607026113519        0.06288085763793       -0.20314845739578
C            1.22233421195107       -0.39214150905312        0.18573011388779
C           -0.01568076506713        0.10161195084895       -0.55495529974615
C            0.37042159451000        1.12461352950403       -1.62578807462665
C           -0.71221674797755       -1.11563627867495       -1.19176601354799
N           -0.88470673890424        0.75028257253842        0.45772500688488
C           -2.24696810794356        0.98188565924729        0.06002096818055
O           -2.49002255017270        2.26550538982617       -0.49453202642028
C           -3.24599410473606        2.26451475153955       -1.68832483775160
C           -3.23793877048952        0.19186413080544        0.57113137904786
N           -3.05054600090510       -0.98966035533648        1.21655863512468
N           -4.31322062277877       -1.47193819352533        1.49450801768143
C           -5.17268934679376       -0.63621982513117        1.03348263656750
C           -6.65614408346432       -0.73185647812344        1.09886087252117
O           -4.59539116878022        0.45773713651745        0.42490789956907
N            0.99265906529028       -1.24818749928919        1.17950802896642
C            2.03317200144791       -1.75334461686726        1.89202823538440
O            1.86574845171746       -2.56392894354655        2.82501476310834
C            3.37231865811560       -1.28591635847782        1.50057880841333
O            4.40126663083414       -1.80743344246825        2.22677896577192
H            7.30446257833378        0.11694870746540       -0.81169796015165
H            7.87600007782146        0.03403818067378        0.87852380761875
H            7.04339590612876        1.49775134365762        0.28299525996229
H            0.83582392146355        1.99317588155789       -1.15789027671821
H            1.07973181885374        0.68588783679034       -2.32761209989818
H           -0.50937659159329        1.45301596506726       -2.17708600547674
H           -1.59421024245620       -0.79737752490455       -1.74878949114636
H           -0.02999952689663       -1.62300145267966       -1.87401147783492
H           -1.02107105389667       -1.81372168537249       -0.41100769583214
H           -0.90041187581974        0.12040319008020        1.26977697219169
H           -3.18993269262171        3.26908724762712       -2.11604182484773
H           -2.85262062105940        1.54375000121448       -2.41972154065705
H           -4.30063664274751        2.02162497179286       -1.49790578078015
H           -6.93496050128348       -1.63097301152802        1.64516026418051
H           -7.07797491251903        0.13759835698101        1.60606447039200
H           -7.08866417926499       -0.77710787678143        0.09801356945276
H            5.26345853036261       -1.49101210164956        1.92285847984691
