42
 energy: -82.913488781376 gnorm: 0.000901128773 xtb: 6.5.1 (579679a)
C            6.14560218903091        1.01844565576515        1.73846763938578
O            4.97445392224623        0.61989463697787        1.03749132723387
C            5.03993700886664        0.71188760748453       -0.32509823857390
O            6.05641803629936        1.11157396646301       -0.86845858941778
C            3.80614396133472        0.29109970454682       -0.97139176697175
N            2.79439154248444       -0.10021965872895       -0.11533580124894
C            1.66886491632111       -0.49489161122372       -0.57671984054837
C            0.56187364871081       -0.93686503005736        0.35395106575622
C            0.90818723442235       -0.56415327473108        1.79617820664244
C            0.32378609260769       -2.44533406165024        0.20716576741619
N           -0.66085708680694       -0.20982590064456       -0.06104535703488
C           -1.85219755982238       -0.38349007384146        0.50641656131622
O           -2.13569635170397       -1.11762497840035        1.43602739081373
C           -2.89278759802779        0.46512287865470       -0.15936669744636
N           -2.76914965636579        1.29195753219409       -1.12703264678431
N           -3.99808780526790        1.81850757273401       -1.41798144648766
C           -4.86540077930069        1.31090277112496       -0.62969297196359
C           -6.31510941014859        1.54837947515718       -0.55893623118370
O           -4.22981628720196        0.41116610552780        0.23596129436705
C           -4.78749121636217       -0.39960585760493        1.31998071517250
N            1.41193452798539       -0.56135204307617       -1.93423563166951
C            2.32041381934691       -0.19350009793613       -2.89877861329601
O            2.01200817855080       -0.27299973877396       -4.08337108665458
C            3.66071570512856        0.28963656603003       -2.38552261924735
O            4.52136228322434        0.63921451388906       -3.20948522098897
H            6.37385542271929        2.07157464950329        1.54419201767530
H            7.00409200857236        0.40833456722732        1.43883922799060
H            5.94407990545153        0.87529149640436        2.79912800642724
H            1.02279960403460        0.51539604853747        1.88333407901931
H            1.84957207586670       -1.04006669495199        2.06863330268288
H            0.12642270530179       -0.89907247028012        2.47373924549301
H            1.25211923063149       -2.97544942082562        0.41705751271002
H           -0.44049371637137       -2.78115916309788        0.90422029661695
H            0.00238941798686       -2.67695696683765       -0.80650270506848
H           -0.58846456713471        0.45418160421825       -0.81862830484496
H           -6.86084222743100        0.61982838123968       -0.72925742032310
H           -6.59325158911206        1.93299826594348        0.42246914073359
H           -6.58611372566118        2.27486867786465       -1.32338904710660
H           -4.61160303185230       -1.44398149624561        1.06899270756802
H           -4.26920255505232       -0.11860236226380        2.23485145513727
H           -5.84646531506657       -0.16790920661269        1.36939639702947
H            0.52160904156798       -0.89720356970280       -2.25626412032500
