47
 energy: -79.492764334621 gnorm: 0.000414973915 xtb: 6.5.1 (579679a)
C           -3.67263036544818       -2.13293997892370       -0.78282628826702
N           -2.56842163067123       -1.46876053327731       -0.08064934538916
C           -1.72816042382228       -2.33425720082860        0.55904091354882
O           -1.87966342817596       -3.54362559395848        0.59679186820051
C           -0.58346765775024       -1.71143193421721        1.25066598032681
O            0.22639534805415       -2.49583676882408        1.88705959003956
C           -0.31211559160133       -0.32093493114583        1.07577158815027
C            0.50752702360194        0.43877557511533        2.10739306515485
C            0.66332419394694       -0.59574260515924       -0.29642607565154
O            0.19270398919487       -0.35749191431938       -1.36594031119963
N            1.85643339955361       -1.01801428068077        0.04497128177327
C            2.94470630798307       -1.08155095700471       -0.94310167179547
C            3.97677723760402       -0.01934845954834       -0.64641773697122
C            5.32173948340756       -0.36375787247780       -0.53820552815334
C            6.27682445060772        0.60794620326742       -0.27386561858593
C            5.85687142354773        1.91668099317737       -0.11641733586404
F            6.77108268712759        2.85885700722038        0.14416475027212
C            4.52763226725235        2.29057055055049       -0.21392887929763
C            3.58629080431271        1.30867039126833       -0.48375495114816
N           -1.38725652331261        0.43934406285938        0.59291336113200
C           -2.40507003853324       -0.09039646267723        0.01414789164842
C           -3.47388653288071        0.87707694703377       -0.47944385868624
C           -2.93570361717904        2.31346776603008       -0.38664827406921
C           -4.72216441235236        0.73870367636910        0.40348469158141
N           -3.82088001385721        0.57072744827446       -1.86278555158433
H           -3.27049033451125       -3.02015437953851       -1.27188572549314
H           -4.42438600239973       -2.43687242778080       -0.05469885061938
H           -4.09923530217385       -1.45392334714230       -1.51640911534012
H           -0.04412879565906       -3.43865501686563        1.81500737843287
H            1.00276251833906        1.28729270367457        1.64011059739362
H            1.24516676642725       -0.20869109920130        2.57404814600931
H           -0.17490106348657        0.80880428212617        2.87169614082820
H            2.08799192707325       -1.26916697748694        0.99185861835904
H            3.38052125206254       -2.08110848172767       -0.88443757045624
H            2.49847572563516       -0.93903916416426       -1.93110896757935
H            5.62696569497276       -1.39595966679794       -0.66058224570384
H            7.32508145097741        0.35374483482295       -0.18523859883857
H            4.23731890947398        3.32426005431523       -0.07909388638457
H            2.53890028110003        1.57503084075237       -0.55838797608754
H           -3.68226790267204        3.00099449487198       -0.78042825816153
H           -2.72013519487462        2.57433129849536        0.64821087109790
H           -2.02159782450954        2.40842673840190       -0.97059125405333
H           -4.46049912881431        0.90484392530859        1.44748055387745
H           -5.45866231475272        1.48213746559774        0.10175964746932
H           -5.16607339577025       -0.24907742441348        0.30323516969499
H           -4.60185874072538        1.15063662879410       -2.13794090407317
H           -3.03783490632378        0.79541258983362       -2.46347132553929
