33
 energy: -58.557675868819 gnorm: 0.000575675151 xtb: 6.5.1 (579679a)
C            4.91566783245299        1.02423820116504       -0.27082408402498
O            3.76291165789574        0.19266446429535       -0.21149653658271
C            2.57287976832198        0.81717425269979       -0.28658332396883
O            2.50653003255398        2.02880088071992       -0.39001948563522
C            1.39032376428114       -0.08757243014382       -0.21698659727549
C            1.47618884341890       -1.47910397532359       -0.29842345699341
O            2.65885299985190       -2.16409515505270       -0.59994127781405
C            0.33740302817616       -2.27812396693797       -0.01843295502097
O            0.34305070411809       -3.52566205860642        0.00101514862507
N           -0.80341011933112       -1.57335296811683        0.35760314403674
C           -0.98196822294115       -0.19965103943014       -0.11737383940621
C           -1.45942768780436       -0.22888087510861       -1.59120302918703
C           -2.00531797946025        0.50806617089074        0.83237177780093
C           -2.12656629301955        1.99784862018129        0.48478106838954
C           -3.39636826550028       -0.13337404958584        0.81299316125059
N           -1.48428959099677        0.40980956789764        2.19913178570560
N            0.24657758035198        0.56521708598470       -0.04636497060033
H            4.96737197777318        1.54062090666783       -1.23440246327210
H            5.78322479573252        0.37696778175606       -0.15014761422840
H            4.89372954170352        1.77053033846275        0.52929353485513
H            2.43321930566113       -3.10815825324757       -0.57109182215552
H           -1.64092230599251       -2.13584268215430        0.32232146030252
H           -1.60543253563162        0.78462827283764       -1.95986898914336
H           -2.39014617168552       -0.78438875473725       -1.68581765419799
H           -0.70122174628002       -0.71679144728211       -2.20395333639455
H           -2.67249583074837        2.13762290121134       -0.44777576503590
H           -2.66370085985181        2.51452200724590        1.28100516420083
H           -1.13482473748759        2.44170773947725        0.38271442682037
H           -3.34476125069126       -1.19794547332474        1.03735365161632
H           -4.02154855202683        0.34161325908417        1.57004735420152
H           -3.87441785493797       -0.00414958214441       -0.15690890332262
H           -1.46220844945812       -0.57116603144815        2.45918497186709
H           -0.51890337844784        0.73622429206695        2.18396345458686
