42
 energy: -82.971760645173 gnorm: 0.000745186936 xtb: 6.5.1 (579679a)
C           -6.37890139083686       -0.13073888946669       -0.63124307588422
O           -5.00789368947375        0.29079408719287       -0.59897572015600
C           -4.12445826783224       -0.49935719450698       -1.17975673040869
O           -4.38188368358833       -1.53748606499208       -1.73180968841312
C           -2.71602253910900        0.04372418710737       -1.05345296654540
N           -1.78351638373070       -0.79016724875172       -0.79992159965214
C           -0.48545140991552       -0.28194964399911       -0.63440192121999
C            0.46302236207906       -1.23128275774176        0.04290254287655
C            0.61787720378294       -2.47764844114699       -0.84423524951836
C           -0.10939150082123       -1.60503148453920        1.41881119445625
N            1.74195311715422       -0.55008012257732        0.18973552783471
C            2.82214729772237       -1.11034541265383        0.76797367436000
O            2.87276830910950       -2.23829011631801        1.22701782296521
C            3.96982708657917       -0.16662968313564        0.77494561565960
N            3.97792406097277        1.03506737359027        0.28152816694580
N            5.22304444322112        1.54229512945681        0.50318665440779
C            5.89517755159915        0.61695486626171        1.11819344000221
C            7.29750092550980        0.67737185369256        1.58499549420772
O            5.15883920245969       -0.48639947772267        1.31729180653826
N           -0.09507131235778        0.85910362088528       -1.05958096336432
C           -1.02509023174650        1.70925885608193       -1.66936268162700
O           -0.72920897091475        2.53305683599807       -2.49407216697075
C           -2.45295309857217        1.53134292134978       -1.16286889164459
C           -2.55815263540542        2.13052045464455        0.26118313028097
O           -3.35635855758037        2.15116898223510       -2.02950232404091
H           -6.94851307915803        0.63610535206373       -0.11145194267558
H           -6.71375322798087       -0.22394712010595       -1.66683173750886
H           -6.48156517405093       -1.09312927402060       -0.12495106969052
H            1.05508408003389       -2.20015471979852       -1.80203257614237
H            1.26407314662430       -3.20051606155480       -0.35029428871823
H           -0.36067719437411       -2.92447520923273       -1.01104395949527
H           -1.10919561738164       -2.01676308786730        1.29291608138617
H           -0.16434179180913       -0.72001715467410        2.05011310416973
H            0.52763943950428       -2.34741203694276        1.89563944640817
H            1.80110566133903        0.39953748430018       -0.15880687729641
H            7.88451543981270       -0.10548697485558        1.10509254789717
H            7.72072314112898        1.64959448521254        1.34543017295122
H            7.33766057531527        0.51650442056357        2.66213479398312
H           -3.57135957046286        1.98676697599417        0.62907766047898
H           -1.85041750579912        1.64615468022885        0.92956103586717
H           -2.34372945098368        3.19541669397516        0.20506744883421
H           -2.88297576007660        2.78657391578720       -2.59089093154867
