42
 energy: -83.611576390676 gnorm: 0.000771405225 xtb: 6.5.1 (579679a)
C            6.02786579351148       -0.26189775616036        0.59191526215838
O            4.87162249722285       -0.85891320962475        0.02265000625476
C            3.67503896095802       -0.36937839552775        0.44937573485093
O            3.61415321612075        0.50926145481744        1.29994943281038
C            2.50202746262164       -0.92203918363790       -0.34213050515637
C            2.71796978845151       -2.37875262326121       -0.76091263765753
N            1.28724373468426       -0.81788620652142        0.44530952269450
C            0.69100502004730        0.32093506053018        0.48772302243242
C           -0.49090898369831        0.45127314565391        1.45591074009935
C           -0.19472712790403       -0.42806107327259        2.67773897857917
C           -0.71261939676793        1.89579214488440        1.92555639519303
N           -1.69561165895739       -0.09569659589712        0.82390185198632
C           -2.34584785715129        0.58226910835646       -0.21300094501067
O           -1.80587633552413        1.48838383706966       -0.87844876670305
C           -3.65636582761508        0.05583597577235       -0.43693478061236
N           -4.23774837515682       -0.93902551986614        0.24522268764168
N           -5.48329324363986       -1.10295455403236       -0.29703603531113
C           -5.60810863416397       -0.23562743676234       -1.24833883896679
C           -6.79408375082588       -0.03232916701763       -2.11760133712058
O           -4.50743952088349        0.53632863289819       -1.41319799155081
N            1.06362268610800        1.39169962296358       -0.25453058334622
C            1.88159933048593        1.26742494106836       -1.42410815221634
O            1.85625342900494        2.23422152358229       -2.23843129900446
C            2.57632160490344        0.04185200349990       -1.55874967358250
O            3.28672900675487       -0.30261822331759       -2.56453641285510
H            6.07014201284193        0.80834152933274        0.36346834222670
H            6.89293749499715       -0.76510331640019        0.16242281428649
H            6.03207064403605       -0.38947301168239        1.67900610757024
H            1.82333103102100       -2.74948689061313       -1.26203708254097
H            2.91217376169565       -3.00112574351003        0.11177612535741
H            3.56207379994835       -2.45182412457935       -1.44608061541563
H            0.71685211539053       -0.08526780849398        3.16643867940959
H           -0.05301017471502       -1.46339856578248        2.36779774116615
H           -1.01579186292312       -0.37830800913494        3.39117109511060
H           -1.49670441652700        1.91410091138387        2.68109301023447
H           -1.01485394013901        2.54470919182959        1.10560830884685
H            0.20519274051356        2.28394963244097        2.36578135872309
H           -2.32586895704340       -0.55374433491284        1.46689264479185
H           -7.57531698926171       -0.73248992024501       -1.83053448423947
H           -6.53502215789890       -0.19298039281088       -3.16487938867774
H           -7.16992752695377        0.98630855653674       -2.01601150005467
H            0.45290360643323        2.19569579045553       -0.26468983239633
