43
 energy: -83.884362013272 gnorm: 0.000388554388 xtb: 6.5.1 (579679a)
C           -2.05013461965245        3.71475999505674        1.18259220334128
O           -1.97660825419266        2.34259792170681        0.79032753703647
C           -2.97650102286358        1.56267843478850        1.19439026515490
O           -3.90984436998631        1.98493030322996        1.86463673028979
C           -2.87392805087440        0.16168172496012        0.75129636842547
N           -1.76032340651869       -0.19912292971008        0.03441667715020
C           -1.65624440631304       -1.41033232333848       -0.39856776557081
C           -0.46011318861930       -1.82970412406749       -1.23370022627103
C           -0.92770979840655       -1.93029956961890       -2.69668022487858
C            0.09362225386341       -3.18026124751972       -0.74524764099857
N            0.53851688746882       -0.78096059706771       -1.09553831873899
C            1.81689651703801       -0.93233930081171       -1.64972505252332
O            2.03313280714888       -1.69658604023075       -2.61156584563642
C            2.79991566760544       -0.10749898955564       -1.05092724372995
N            4.07797364379251       -0.01667855058205       -1.39294821589433
N            4.71619289467543        0.79065508429574       -0.60279982284634
C            3.75978058855793        1.29173584246178        0.39426163641967
C            4.19895354497131        0.84886751074827        1.79912887202334
C            3.66429471488061        2.82182174500752        0.30304593654699
O            2.50986445999258        0.69798760852439        0.06136079359971
N           -2.63221260400818       -2.34087085804441       -0.17103319637219
C           -3.78862601935387       -2.10836790458008        0.55278876382413
O           -4.60638182396806       -3.00173276731738        0.72452326398117
C           -3.88224207462863       -0.73605093647339        1.03666746939372
O           -4.98102181248961       -0.42663576069748        1.73800146625169
H           -1.22194145419022        4.22671885104069        0.69651774766190
H           -1.96335628898871        3.79960831336236        2.26825937539589
H           -3.00170043979684        4.14671336459275        0.86424757557532
H           -1.24383220831737       -0.94926268315958       -3.04995115062806
H           -0.11373976227309       -2.29067414266979       -3.32338215557886
H           -1.76513595558943       -2.62178967495152       -2.77169537529757
H            0.98687803964883       -3.43399826639234       -1.31429334158500
H           -0.63962419976150       -3.97076246562786       -0.89026033912483
H            0.34731056865931       -3.12071124498965        0.31198207040244
H            0.52520469517389       -0.32708850976951       -0.18899066059292
H            3.46540987986437        1.16430852913207        2.53865536572197
H            4.28486371094568       -0.23628744638911        1.82351223082455
H            5.16540193008555        1.28814641051184        2.03785974812667
H            4.64086628845723        3.26100437574760        0.49672458611664
H            3.33819721972543        3.10484271506305       -0.69658778109805
H            2.94911931421406        3.19859653481651        1.03173136104631
H           -2.53117337599604       -3.27946985002192       -0.52659980087966
H           -4.94999948998629        0.51983191853659        2.01202511393547
