47
 energy: -79.537401745242 gnorm: 0.000461146602 xtb: 6.5.1 (579679a)
C           -0.75491160709827       -4.49467289441257       -1.39604968277263
O           -0.22468976502735       -3.35221352292317       -0.69913685219623
C           -0.89115011843274       -2.19575353867109       -0.59031881717656
C           -0.30951341103540       -1.16046300882259        0.10745459341741
C            1.00237798666373       -1.22013121461002        0.72911493154881
O            1.76893592818397       -2.27591010354210        0.69370104669707
N            1.43112371955641       -0.15990149842298        1.35498430176838
C            2.72577533843865       -0.05551953112635        2.02796536446263
C            3.73709553380663        0.60090768224979        1.11265908301474
C            4.09027373579142        1.93472285005849        1.29870038672958
C            5.02343757979096        2.53647268053439        0.46574575298562
C            5.58234441028775        1.78037063200616       -0.54905543334825
F            6.48473610294855        2.35334375366547       -1.35466577823780
C            5.24568033405493        0.45502333784794       -0.76510490757883
C            4.31368407270090       -0.13242003753588        0.07733019840457
N           -0.94829861165582        0.03137348831388        0.28378941090348
C           -2.12467378876223        0.24246638303807       -0.22916174124527
C           -2.76914775387560        1.57971251286378        0.10926448159045
C           -1.73387704041421        2.48574577609779        0.79434870563186
C           -3.94532607245257        1.34213618496517        1.06860043832105
N           -3.25306141665706        2.22499617045055       -1.10710392837682
N           -2.74835911347530       -0.71951044212557       -0.96892424322401
C           -4.06039725061327       -0.54523703907866       -1.60696090483352
C           -2.21105355418706       -1.98605802767220       -1.18049790245270
O           -2.83735292954771       -2.81761988063977       -1.82075107850450
H           -0.91537306237202       -4.25903992709362       -2.44936916434855
H           -1.68812847704145       -4.82279330504080       -0.93564927204036
H            0.00458087198969       -5.26871588166284       -1.29638368586170
H            1.34466086306950       -3.03556471135796        0.24066156339493
H            0.81799207761352        0.64899984970140        1.34676914094047
H            3.04201258384875       -1.06405525210276        2.30293762245002
H            2.57085694497777        0.53980784337915        2.92966492675345
H            3.63802066637194        2.50736426651732        2.09917626593844
H            5.31085343671796        3.57115689197751        0.60036630294433
H            5.70269841150080       -0.10250080936128       -1.57237945952287
H            4.03271136446543       -1.16788112526914       -0.06898739520281
H           -1.40397319659406        2.04617052918792        1.73402383231464
H           -2.18322645128040        3.45698223166628        0.99475780849376
H           -0.86893204504810        2.62259074727483        0.14813281866179
H           -3.59963972761577        0.81202957622355        1.95525443001839
H           -4.36064938240565        2.30217542526481        1.37193243853252
H           -4.73044717157615        0.75858922709416        0.59240340849312
H           -3.72237537199421        3.08382975702166       -0.85224065968859
H           -2.46342331451033        2.46512328147631       -1.69094192886607
H           -4.31518575812207        0.50917248246016       -1.64669228514585
H           -4.00117940427120       -0.95011256882522       -2.61759102216755
H           -4.80550516671012       -1.10518924104406       -1.04177511161757
