47
 energy: -80.220467302646 gnorm: 0.000535978734 xtb: 6.5.1 (579679a)
C           -3.66370311500442       -1.86947240348202        1.20996897882197
N           -2.33089042659969       -1.66514764024939        0.64346548223181
C           -1.55541019176175       -2.82797849718947        0.50755282014146
O           -1.92128072703629       -3.88876152524574        1.05234759791237
C           -0.31856169727369       -2.66235636812425       -0.18698478119800
O            0.49556376445763       -3.79202885401401       -0.30259778482365
C            0.07398954908467       -1.39928724019694       -0.61433391667443
C            1.44569664065618       -1.15278667595586       -1.12968848940108
O            2.32220628661826       -2.01971140414929       -1.23990062404467
N            1.66017097843407        0.12526278707062       -1.51567459803609
C            2.97916340230174        0.59738422668791       -1.89630401586807
C            3.77902161186791        0.99065020918976       -0.67103656722819
C            4.42725356983324        0.01267749588421        0.08173522809752
C            5.13850159126691        0.35506919049788        1.22267652120181
C            5.18520747736852        1.68803764847676        1.59045600884589
F            5.87605507980565        2.02963512146555        2.69403959044204
C            4.55581597329071        2.68472348704545        0.86796773322519
C            3.84754006669083        2.32256989000224       -0.27045038126300
N           -0.70471109172570       -0.32388757059610       -0.55400006133695
C           -2.11393613063123       -0.51065718205875       -0.25055204039563
C           -2.84953960057768       -0.74004410115178       -1.60019360565615
C           -2.54342600665892        0.86001755204496        0.38999006327417
C           -4.04315562957222        1.09605909605773        0.61659286583101
C           -1.78081303935959        1.05456355024802        1.71238644133451
N           -2.13084930377853        1.88594919114819       -0.57663719147983
H           -3.80581552307797       -2.93500262446625        1.40910075011885
H           -3.77324084858028       -1.33405658176886        2.15620870912788
H           -4.44709511420337       -1.54637511508636        0.52271414569562
H            1.35117014112545       -3.50402605407716       -0.67583374125745
H            0.95029707151739        0.80915443801651       -1.28177949090283
H            2.85941572538867        1.45315483587149       -2.56511141394105
H            3.48647301267215       -0.21032203743042       -2.43499252103431
H            4.37745557731757       -1.02532467291996       -0.23007321922335
H            5.65132173602339       -0.39252694578758        1.81451071318561
H            4.61972429945480        3.71659824368844        1.18769196671453
H            3.34895008809198        3.08940602078735       -0.85212876770312
H           -2.72732116429007        0.14497077626346       -2.22268650984969
H           -2.40567948659401       -1.59514964757059       -2.11052387107425
H           -3.91228174659883       -0.92989032447439       -1.46162125987695
H           -4.42103954863547        0.56845642034837        1.48889472844893
H           -4.62669387582737        0.81074772891835       -0.25774524258528
H           -4.20192310709401        2.16191888851424        0.78853029455035
H           -1.98648733914859        2.04198137112514        2.12438117705999
H           -0.70897007518617        0.96579630093132        1.53164417793208
H           -2.07669674653388        0.30153551522903        2.44357788741043
H           -1.14054993276523        1.75763996254894       -0.77566523595963
H           -2.24092817475586        2.80083151793783       -0.16075455079419
