20
 energy: -38.329124381675 gnorm: 0.000733375511 xtb: 6.5.1 (579679a)
C            2.57709597001842       -1.58958011158398       -0.08422249643000
O            1.36680649537786       -0.91283281076418        0.22615166377080
C            1.35281387915977        0.42381324380362       -0.02416985121921
O            2.35197648289963        1.00941366679054       -0.43617990763785
C           -0.04562636530980        1.03291510854010       -0.00632949600429
C           -0.04339293276086        2.51703065182756        0.36528585190419
N           -0.33546469335871        0.77161081249632       -1.41565352092623
N           -1.32368815682539       -0.18022725253584       -1.40493899578564
C           -1.67716548803200       -0.43834149485483       -0.20375345332631
C           -2.73886735580629       -1.37699984767981        0.25110793353225
O           -0.97457517970704        0.29186863103461        0.76506392149663
H            3.41317575535819       -1.16673611856106        0.48238238432784
H            2.44060253388544       -2.63485212541595        0.19091782376248
H            2.80358346733638       -1.51522165425840       -1.15346135347504
H            0.74523511884753        3.02432208625474       -0.18730787441229
H            0.12671713369356        2.63794632223075        1.43364298090069
H           -1.00529442810046        2.95383031134251        0.10495284644546
H           -3.26546129508302       -1.77092215224214       -0.61666111623812
H           -2.31500635008332       -2.21132716741345        0.81471085038195
H           -3.45346259151016       -0.86571109901095        0.89846080893220
