47
 energy: -80.236673054563 gnorm: 0.000367519823 xtb: 6.5.1 (579679a)
C           -4.25086729473179        0.16720380916470       -2.79299654784773
N           -3.04168051692570        0.58679061506618       -2.07996412565774
C           -2.66007580059628        0.08932532020421       -0.86269709569873
C           -3.47989958763944       -0.94922201514253       -0.10356424300906
C           -2.67457890561565       -1.44671817064005        1.10746190993516
C           -4.78256914465920       -0.30648295607231        0.39241461463393
N           -3.80056477223962       -2.08242388224875       -0.96958183429476
N           -1.59253925752177        0.52062039777260       -0.26245400366764
C           -0.81733163830827        1.49058142359954       -0.82979911360982
C            0.38111508013357        1.93719569658178       -0.07630442555904
O            1.14877790469700        2.79596936128122       -0.52681573201241
N            0.54785555272987        1.34966675781009        1.11279944432635
C            1.66602357374177        1.68301937244685        1.99160925509188
C            2.85480509413168        0.79188386823417        1.70260484990083
C            3.75097029445777        1.12192970719464        0.68881668249506
C            4.82842986366339        0.29587982079608        0.40867837016830
C            5.03592201739943       -0.88045316219328        1.13005350638592
C            6.18440354268970       -1.78587830116403        0.80395762247297
F            5.29766669253974       -3.64354651801662       -1.43078190148395
C            4.13428003198204       -1.20507884766416        2.14325577271370
C            3.05577996204468       -0.37950441583015        2.42662458322940
C           -1.13793824867113        2.04087574779698       -2.04238467125532
O           -0.41144530995082        2.99984446951037       -2.63288691369992
C           -2.33538832627057        1.59506286483931       -2.73932640762865
O           -2.73493943779266        2.03536727984788       -3.81162676263947
H           -5.03913852253869        0.90216398797216       -2.62706322134320
H           -4.56732877193541       -0.81302804426815       -2.45137528232689
H           -4.02454356075032        0.12678792749543       -3.85935865155170
H           -2.48603119027013       -0.62946598303586        1.80150449721824
H           -1.72017513623496       -1.85928149613390        0.78308540202893
H           -3.24015071358506       -2.22320699202974        1.61920379267870
H           -5.42190315397073       -0.01634772815777       -0.43863589497413
H           -4.55808093786290        0.57653430330085        0.98962362126520
H           -5.32494227774392       -1.01919310790513        1.01181333347310
H           -4.47349619236616       -2.66887997054933       -0.49781978355446
H           -2.96794854242627       -2.63591443503211       -1.12594992716843
H           -0.12736663629001        0.66501048617394        1.41710363689283
H            1.92227152483619        2.73376102403481        1.82160472234999
H            1.32661679803079        1.55814471744139        3.02202239029644
H            3.60346347811529        2.03454254081797        0.12089325615795
H            5.52341246600278        0.57589090149425       -0.37710244743383
H            7.03847952514992       -1.21600845962867        0.43715844037737
H            5.88208093164191       -2.49420870318307        0.01442645088323
H            6.48977526759515       -2.35989022330616        1.67875722059769
H            4.27739571435914       -2.10893691012073        2.72659098917657
H            2.36928480754176       -0.64405239911601        3.22315823063176
H            0.35211475346795        3.21995132052736       -2.03673560899526
