20
 energy: -37.645613263993 gnorm: 0.000479358349 xtb: 6.5.1 (579679a)
C            4.05488034991101        0.75126042595012       -0.14218549631761
O            2.61616691020027        0.68388936878400       -0.16888698307783
C            2.07419930543261       -0.49262335000318       -0.35838357875428
O            2.64488711321740       -1.53469870392323       -0.52103599584562
C            0.56899025575744       -0.40298935215060       -0.34780859241583
N           -0.26805404657821       -1.38183916901782       -0.51031994112747
N           -1.48297308070667       -0.81793564409953       -0.41134955565238
C           -2.67546334338154       -1.63260528162507       -0.54307484797819
C           -1.36256589453179        0.47740878114372       -0.19367069525657
C           -2.41001532071781        1.49159361164224       -0.00449121996089
O           -0.07773704301457        0.76016826549078       -0.15000096944233
H            4.30364354567860        1.80435357080373       -0.03814370725657
H            4.45795449718078        0.34466866830047       -1.07096707040177
H            4.42899802564170        0.17803211072014        0.70739496544255
H           -3.24236430907195       -1.29109115036248       -1.40748611823401
H           -3.27498264538783       -1.52833410351632        0.35908165570600
H           -2.36022602310673       -2.66420538365446       -0.67678752729148
H           -3.35970341343479        1.13967692162932       -0.40038819317394
H           -2.11154342646977        2.41914792046098       -0.49362159319354
H           -2.52409245661808        1.69612049342718        1.06308746423182
