42
 energy: -83.602295615064 gnorm: 0.000240166745 xtb: 6.5.1 (579679a)
C           -5.82397395137821       -1.47664243389475       -0.82728989867462
O           -5.04505632258447       -0.38844461709449       -0.35038104408008
C           -3.72050351225995       -0.40507538087727       -0.66980052347957
O           -3.25526998743654       -1.29142599405748       -1.37059391135120
C           -2.91827640993870        0.66421618274513        0.09091291493423
C           -3.73986767410953        1.95620232074826        0.26704405439377
N           -1.69288488645555        0.96539384345525       -0.62540127244094
C           -0.58936404956358        0.39042560870994       -0.20636614160417
C            0.63488693657071        0.71672678324326       -1.08363714222123
C            0.41638648036635        0.12809739004909       -2.48568334024126
C            0.80496507738122        2.24102562990908       -1.16539194258656
N            1.80132838319726        0.10973935047386       -0.45580954204486
C            3.07032770779463        0.21706225541830       -0.89031484108806
O            3.41982853729899        0.80492295963185       -1.92427896691411
C            4.01661455391572       -0.45374993035207        0.00906277544388
N            3.72371635173048       -1.10492432689980        1.11322173336495
N            4.90807485295756       -1.54792405589427        1.63418545844159
C            5.84283593897809       -1.14910735199842        0.83388785415089
C            7.30128012104008       -1.37302200595571        0.97231580449838
O            5.36301905193340       -0.45355214643420       -0.21643119667249
N           -0.35862035198102       -0.39756389379551        0.83195588223195
C           -1.42494121522975       -0.61580524478334        1.71616348288563
O           -1.24885630991121       -1.25223517818469        2.80620949465151
C           -2.65475201503790       -0.05727414318284        1.37644260453982
O           -3.73768058912143       -0.20416373425807        2.27265977317164
H           -5.73354105418529       -1.57169570769199       -1.91422800288962
H           -6.86033412929177       -1.26912893952828       -0.56418778792372
H           -5.50759436786337       -2.41656719957354       -0.36310813835456
H           -3.13236867496218        2.69575355940474        0.78844909099366
H           -4.64049233965535        1.76433698181428        0.84850888597821
H           -4.02089322920451        2.35781390356698       -0.70636855440391
H           -0.52978641724805        0.50105028391657       -2.87908500498390
H            0.37183424414402       -0.96044067012478       -2.43318557682283
H            1.22206412089020        0.41604046020069       -3.16049970512861
H            1.60261690922070        2.51147949329761       -1.85638466195248
H            1.03887824046604        2.64510676203154       -0.17999666348918
H           -0.13063035660486        2.68090865868141       -1.51174940502276
H            1.59559204556109       -0.38556610056084        0.41741922193523
H            7.82350495738639       -0.41918949353173        1.04517196866840
H            7.49698028608167       -1.95933086717922        1.86647844012659
H            7.68726426694463       -1.90134715888729        0.10090437882670
H           -3.37630821984375       -0.71212485254345        3.01986944511760
