47
 energy: -80.222730456946 gnorm: 0.000511656173 xtb: 6.5.1 (579679a)
C           -3.81370612583906       -0.54547708554706       -2.26539537158413
N           -2.65348346817474       -0.25284113347264       -1.42472499951978
C           -1.46016795678258       -0.32710898940554       -2.04611710071615
O           -1.36100015794942       -0.63772643004393       -3.24262323255381
C           -0.18473757366207        0.01802643001074       -1.26599066683385
C            0.19106276530041        1.48000195296952       -1.61672659503188
O            0.83475043361252       -0.84903556891898       -1.77255178253510
C           -0.39091029127119       -0.16508857810571        0.22171347909766
C            0.65996058722376       -0.15757155728674        1.17170497666360
O            0.51310623035268       -0.23556852411211        2.41000963991112
N            1.97399341770346        0.01810671994803        0.65614103739067
C            3.05008083905971       -0.32629556449199        1.58768731047049
C            4.37649068212805        0.02047036440052        0.96037364114614
C            5.05920770288407       -0.92332915050185        0.19494540120088
C            6.26961874779764       -0.61022709750417       -0.40861830773126
C            6.77725653583608        0.66386990620027       -0.23380110431995
F            7.95252979064828        0.97709790149284       -0.81205959921637
C            6.12849131758835        1.62860785460024        0.51499969371080
C            4.91939085123938        1.29558916946582        1.11024502480641
N           -1.65851830809449       -0.19300915698565        0.71408737004354
C           -2.72995801293632       -0.18121590368605        0.00488047468036
C           -4.06633151454630       -0.17951426914828        0.73285163892298
C           -3.82579676786025        0.23535853502264        2.19640703258487
C           -4.70722487303919       -1.57802681954852        0.71741590086544
N           -5.00056247676658        0.76952169584434        0.11329388461388
H           -3.62850636318311       -0.14264454080060       -3.26271060147459
H           -3.96473630003176       -1.62501474866785       -2.34773301740522
H           -4.70504595005881       -0.07746104994378       -1.85450631000615
H            1.12763078105428        1.74023534106982       -1.12544627852429
H            0.31102342428426        1.58592088626601       -2.69433981429645
H           -0.59244006895006        2.15355348264842       -1.27309175854137
H            0.61475758473931       -1.04761903066787       -2.69777692476991
H            2.11973937058524       -0.42165970747262       -0.24566237526223
H            2.90434569452500        0.24445043210279        2.51161666355795
H            3.02076980371455       -1.39748210566744        1.83886283073328
H            4.64698507388711       -1.91869904897476        0.07126926798543
H            6.81026580615849       -1.33725157553557       -1.00013073746661
H            6.56226434528508        2.61335137062164        0.62910452534145
H            4.39779601017022        2.03960716886034        1.70280266195420
H           -4.77577190852930        0.27860786227481        2.72719526499875
H           -3.17203477925475       -0.48247402584848        2.69257769842683
H           -3.35651529707276        1.21826145305981        2.23438291696944
H           -3.99681599098629       -2.31492558680071        1.09267047001271
H           -5.59296072477230       -1.59163546138412        1.35240732418468
H           -5.00609836842374       -1.86197312238856       -0.28971843414099
H           -5.90203866524118        0.68445740292811        0.55981028943594
H           -4.67615285235281        1.71577790312413        0.26539859222107
