16
 energy: -34.171437360537 gnorm: 0.000657829546 xtb: 6.5.1 (579679a)
C           -1.50410262856988        1.06060605950868       -0.62149559593056
C           -0.63413427898130       -0.04530053084137       -0.01010274696543
C           -1.40242478954594       -0.83677009260065        1.05611776202640
N           -0.18720062260891       -0.96181065787182       -1.07479396981279
N            1.08824438798474       -0.93191013367562       -1.12340437087799
C            1.58928665163207       -0.08956657732742       -0.20179505265489
C            2.91155474158417        0.20609945263389        0.05020948404638
O            3.45019682810307        0.94768363627283        0.85447949000640
Cl           4.01881139266474       -0.74301472308067       -1.08933460196410
O            0.55297152773454        0.50335123712047        0.53793811577091
H           -2.38264746383542        0.62063530519743       -1.08810624586650
H           -1.81759943142218        1.75935970110459        0.15159881216357
H           -0.93041713650009        1.59724205709551       -1.37533967917126
H           -0.75846595331508       -1.61398113041266        1.46433717074332
H           -2.27977702852426       -1.29866697364402        0.60877651494769
H           -1.71429619640003       -0.17395662947915        1.86091691353893
