42
 energy: -83.591595864298 gnorm: 0.000577213047 xtb: 6.5.1 (579679a)
C           -5.64681980923585        2.84240652448109        0.07419524242758
O           -4.71991452411769        1.81787062546746        0.35433740360128
C           -3.61051930940897        1.77472353028625       -0.49685385658528
O           -3.52865705825889        2.63266948389326       -1.40357150594836
C           -2.67945458670560        0.74508039802209       -0.23242993520499
C           -2.79343772668407       -0.27573050761493        0.82910503160800
O           -3.77009920636186       -0.33847060664935        1.64130892701659
C           -1.72193742635456       -1.17721299803801        0.86729257336420
O           -1.60139846774692       -2.25884785437232        1.73846427172519
C           -1.75574334078762       -1.98172788455071        3.12177291432447
N           -0.65703432225360       -1.10249961154407       -0.03612517249165
C           -0.66102667084361       -0.15168515362242       -1.01834392923192
C            0.47690095291426       -0.15313469433768       -2.03567460391589
C            0.29723749234504        1.04253468675444       -2.98006496086254
C            0.45226807893704       -1.44894445106447       -2.86087650966724
N            1.77970826751190        0.02093476055027       -1.39008258839682
C            2.37540817792662       -0.90453115730626       -0.53249119776626
O            2.05974568899411       -2.11856562663318       -0.49875761230007
C            3.41605827416104       -0.30438661948239        0.23527151809907
N            3.74277035541219        0.99616254987630        0.24581365236111
N            4.77532823331993        1.12767506214951        1.13542794375349
C            5.02619339829729       -0.04653232468747        1.61373171431449
C            6.06700422429776       -0.40082513136731        2.61162715722668
O            4.22060199213047       -1.01320406251672        1.10913490720779
N           -1.58979812455145        0.73527837296658       -1.10962975027752
H           -6.06502249414694        2.74245386463365       -0.93604638832267
H           -6.45486928013389        2.76150803680923        0.80359554847652
H           -5.18722239371566        3.83611593069100        0.15716817603403
H           -1.06390513766870       -1.19679533781618        3.45568499850891
H           -1.52880241551126       -2.90601690847958        3.65755302067064
H           -2.78234051289665       -1.67406737256173        3.35823405153408
H            0.03053506462268       -1.84425756385431       -0.03113887853925
H            0.29322971984106        1.97499776214898       -2.41522016495095
H           -0.65198069847895        0.95879263826241       -3.50841519287378
H            1.10797804571779        1.06983822323045       -3.70667556325645
H           -0.46568333165900       -1.48650638258152       -3.44738603459043
H            1.30399795683845       -1.47225470448616       -3.53966764470095
H            0.49261545662940       -2.32863062472347       -2.22166541282881
H            2.02933385599752        0.98339866212542       -1.19838003911793
H            5.61096098312640       -0.82759717194609        3.50580792977803
H            6.62510289247215        0.49133375367993        2.88502835227592
H            6.75268572603749       -1.14134911577319        2.19894160754825
