42
 energy: -83.634931320401 gnorm: 0.000939854659 xtb: 6.5.1 (579679a)
C           -4.42973931449119        3.59970748361926       -0.54569727075878
O           -4.15339771565635        2.21286779847261       -0.69171739231906
C           -2.98884547529611        1.77898475720392       -0.16080528241180
O           -2.22332591582849        2.54622310249610        0.39658387175754
C           -2.76837451648754        0.32817168908718       -0.31570671022986
N           -1.56661786138346       -0.12332385378199        0.16532000368279
C           -1.32388963179040       -1.41420353824083        0.08970461036104
C            0.01132421094155       -1.87557045632263        0.67171162831242
C           -0.04322140499589       -1.69062807742611        2.19766211647646
C            0.28364116351421       -3.34204890283348        0.31799123785969
N            1.05358513731439       -1.02175304657185        0.11137489867956
C            2.36046615486834       -1.10458024041002        0.36381477476454
O            2.88162314554570       -1.89599765439117        1.15222364427421
C            3.19085661033439       -0.08331241781606       -0.49654419523569
C            4.23197241639290       -0.90067003279726       -1.28843383857857
N            2.31061565823115        0.67537239541270       -1.37034381622039
N            2.45372797917466        1.98740245912558       -0.99225551141523
C            3.30270745890217        2.08066359192182       -0.03879317539273
C            3.76251375634407        3.31512974855100        0.65675381309863
O            3.84460573914028        0.85119913119634        0.36103544650111
N           -2.12134372714527       -2.36008217767668       -0.40997110743358
C           -3.32059657571009       -1.99144198219771       -0.91577898751629
O           -4.14909383277157       -2.78601823544540       -1.41351242059346
C           -3.65354411238909       -0.56892241471456       -0.86181214759111
O           -4.87051594652457       -0.25053693967426       -1.37106448870033
H           -3.67599328508509        4.20124678567593       -1.06352703719956
H           -4.44205229638712        3.88068196708307        0.51171627917618
H           -5.40943033736551        3.77606842134651       -0.98635261049947
H            0.90172688082931       -1.98368629190077        2.65310106614576
H           -0.83943018535799       -2.30742016545131        2.61212965239894
H           -0.24863599983677       -0.64608138521530        2.43341706248631
H            1.22074379583714       -3.67465385404919        0.76169516152337
H           -0.52766806999191       -3.96269923139025        0.69559249271681
H            0.33670819039432       -3.46316500105377       -0.76373703877678
H            0.79829874800670       -0.31221247915556       -0.58922919610013
H            4.87836527536536       -0.22008543319257       -1.83874889972224
H            4.83504769930320       -1.50260551727368       -0.60958929129127
H            3.71793908720738       -1.55159497918413       -1.99348826829046
H            4.84436264828443        3.43533484440741        0.56435952678032
H            3.52200711425826        3.28331107422725        1.72280172635965
H            3.27384429049340        4.18049955121340        0.21147008862043
H           -5.26096895619528       -1.09956849288293       -1.66792441571685
