43
 energy: -83.169348618857 gnorm: 0.000711590413 xtb: 6.5.1 (579679a)
C           -4.27042444376597        3.01956137314105        1.78055048225792
O           -3.30175325884024        2.05223214600423        1.33287462389224
C           -3.57140683760664        1.29015717144118        0.33947984696938
O           -4.72170109385537        1.42354537673392       -0.23192656437455
C           -2.57269965886248        0.33054113474792       -0.07216113798458
N           -1.41410299181009        0.36184387845191        0.66261560191110
C           -0.46665307514264       -0.46834370304958        0.37442135651790
C            0.80091284729940       -0.47211796135471        1.21165614433144
C            0.87523780949197       -1.77672002549744        2.01861161780577
C            0.79334158727927        0.73241553064814        2.15406347385737
N            1.98002718178291       -0.33139926606338        0.34894687379792
C            2.48567586350092       -1.28030814480208       -0.46297105693297
O            1.96059821570975       -2.36140286607757       -0.70214070049025
C            3.76571270419403       -0.88154006770579       -1.08488963032002
N            4.49006281740744       -1.55863865708858       -1.92028844169380
N            5.57369983413807       -0.79069119314849       -2.21353953643292
C            5.44689962155366        0.31059585749949       -1.53932297386012
C            6.36335707976645        1.47049308879466       -1.51175541882582
O            4.32305406158707        0.31665809616730       -0.80400048622796
N           -0.58909850974326       -1.37859479873723       -0.62574120138353
C           -1.67829982397676       -1.50712515570723       -1.45032460676619
O           -1.70436669834568       -2.33189394966015       -2.34301867809260
C           -2.76052603479170       -0.55829395884364       -1.11997663203189
O           -3.90632077541452       -0.52776048212419       -1.78841697327105
C           -4.19724020359485       -1.41377300047360       -2.88939005435034
H           -4.51048885823169        3.69754495548681        0.96115795863300
H           -3.80162667911876        3.55123398743473        2.60517857869139
H           -5.17200683053566        2.50142394289022        2.10947956178633
H            0.84061042936794       -2.64555763410178        1.36498000411207
H            1.80293094678157       -1.79528796462731        2.58785154336659
H            0.03221885240020       -1.81912781269257        2.70620097762745
H            0.72392207180028        1.65694928667130        1.58361432812455
H            1.70556121291091        0.74276901761405        2.74748559375613
H           -0.06491568132206        0.67053789570958        2.82070945183162
H            2.50219575097368        0.52488717474933        0.45049746046045
H            7.21237882215486        1.28477017527436       -2.16592150003822
H            6.71367745928174        1.64075437750473       -0.49358875237131
H            5.83600530094045        2.36671727888646       -1.83894282150626
H            0.20327383110316       -2.01046524193869       -0.80482761817924
H           -4.87466805972865        0.81735130542873       -0.99020146910676
H           -4.16873576589524       -2.45136655008847       -2.55495926365294
H           -3.48266895562944       -1.25537709357423       -3.69793357223788
H           -5.20164906520716       -1.14719952392995       -3.21247938960091
