20
 energy: -37.625357138101 gnorm: 0.000490151815 xtb: 6.5.1 (579679a)
C           -3.13764144154745       -1.64758027132245       -0.47459572721941
O           -1.69999398783673       -1.59292710591882       -0.57964673297145
C           -1.06660959873506       -0.55916532930556       -0.16014398615789
O           -1.74326390067312        0.40698724866680        0.34335336544342
C           -1.18981498146442        1.63244962775053        0.86054701567872
C            0.36225214124186       -0.59458678300136       -0.30119723660821
N            1.07026950646359       -1.57760948466145       -0.80523930652789
N            2.34819842753411       -1.20808951674016       -0.74885017858452
C            2.38500825520673       -0.00950963636723       -0.21267457689379
C            3.57021574771476        0.82356285373097        0.04857688178316
O            1.16086439413755        0.42243751036753        0.08816066984060
H           -3.57044982077149       -0.83850260426074       -1.06279824765823
H           -3.42512667040245       -1.54209366892821        0.57133235396896
H           -3.42503900413062       -2.61950241579521       -0.86807982657254
H           -0.65364493735502        2.15508531771068        0.06932077896410
H           -0.51904356624395        1.41012742545068        1.68959242781154
H           -2.04666009353626        2.21166989744391        1.19851396367549
H            4.47458937072683        0.26820397853588       -0.18858513217049
H            3.58293931345005        1.13230677688985        1.09368542684805
H            3.52295084622061        1.72673617975344       -0.56126993264839
