47
 energy: -80.232490673781 gnorm: 0.000744047349 xtb: 6.5.1 (579679a)
C           -4.74832716673743       -1.55928327454394        0.53349450757061
N           -3.42856221297839       -0.95716975939075        0.72811740936659
C           -3.04149718604071        0.22673855603736        0.14779156817544
C           -3.94764357921743        1.00462966504171       -0.79985929319298
C           -3.86046800250827        0.37048336583908       -2.19637951263551
C           -3.46284796699458        2.46249628866598       -0.87529732026012
N           -5.33162112494316        0.96967827229981       -0.33794932039413
N           -1.85936911980720        0.72059379167534        0.33091301761122
C           -0.93063928625866        0.11262127109586        1.12932485895157
C            0.38207475392621        0.84496986727329        1.18574536595266
O            0.54983651686864        1.89117911245104        0.56900135103265
N            1.33909763329121        0.29352016720732        1.95306933553110
C            2.68241607128951        0.87303304221018        2.00150079657153
C            3.51899000578214        0.35359464086041        0.85160515365092
C            4.22990604189589       -0.83681793126686        0.97511645928476
C            4.96403274064477       -1.33186122369367       -0.09288842169859
C            5.00239765387360       -0.65311348147872       -1.31039342755016
C            5.81732601935332       -1.17455907080489       -2.45431023609571
F            8.54917903433012        0.14670902156234       -2.36154750649045
C            4.28464296374904        0.53721024096000       -1.42882533360331
C            3.55017962496063        1.03406465124977       -0.36295789094812
C           -1.26507066258267       -1.05051162175085        1.75866788957745
O           -0.44529725581483       -1.74336594236232        2.57861861551208
C           -2.57773063157952       -1.64053224744187        1.57536146984622
O           -2.89345813447966       -2.69006384178630        2.13657929561851
H           -5.48765495600633       -1.02504008397990        1.12716421748448
H           -5.03170122528195       -1.51559344974302       -0.51328465920042
H           -4.69838314997890       -2.59824391823128        0.85829166622565
H           -4.25751199562190       -0.64283358417268       -2.19331449324257
H           -4.43748824159774        0.96509786146531       -2.90288727345341
H           -2.82231862913064        0.33967572242187       -2.52657239896708
H           -2.45181167995727        2.50921261888493       -1.27943968023667
H           -3.46496582821010        2.90974019286083        0.11771263253276
H           -4.13181242464738        3.02989192154521       -1.51944127004491
H           -5.44358158798894        1.58643429477549        0.45606730144787
H           -5.93825147150962        1.30576765560851       -1.07202545101545
H            1.20340679038262       -0.59463191988916        2.40401012944734
H            2.58497037853501        1.96231604756418        1.94803027581622
H            3.12521403574854        0.59961014619057        2.96230570721499
H            4.20917627129370       -1.38155642454061        1.91239041726605
H            5.50550857207530       -2.26508116089520        0.02292782797217
H            5.93926864688106       -2.25533985668763       -2.38597387685502
H            5.35209838714212       -0.92888288320458       -3.40925607495711
H            6.81874812479757       -0.71303479431292       -2.43353649006325
H            4.29095347565373        1.07943960761670       -2.36946451674571
H            2.98768623337671        1.95473263169214       -0.47436917830133
H           -0.92909845599833       -2.52592318489775        2.90443335631029
