38
 energy: -79.612523329993 gnorm: 0.000879897836 xtb: 6.5.1 (579679a)
C           -5.71455637568611        1.51257034126077       -0.43686902465182
O           -4.41012728291394        0.94687427337042       -0.33701788045216
C           -4.14015152612233        0.27819677002362        0.79252932928289
O           -4.96993512843154        0.16804606372383        1.68615532118712
C           -2.78887646654714       -0.29493589463108        0.84380721924238
N           -1.97181312726174       -0.07826195952838       -0.23164031605315
C           -0.76822153844018       -0.60544055695875       -0.16751344864287
C            0.11957138280899       -0.41804906943405       -1.39693665532446
C            0.05050383810369       -1.70256631843420       -2.22934799126291
C           -0.32574714969853        0.78871512867364       -2.22619552215988
N            1.51483355820057       -0.24861745328123       -0.97389011599834
C            1.92940978442191        0.74439760145084       -0.17170873798021
O            1.23112964016034        1.62884859067384        0.29639148327898
C            3.39337789365447        0.63574543966689        0.09839197302040
N            4.18001077488509       -0.31586641856688       -0.30689464460066
N            5.42543156293523       -0.02854699927426        0.17170415592221
C            5.31720906347115        1.07920163744723        0.83871582573177
C            6.38614539850708        1.80686627567977        1.55814821896334
O            4.05964812626098        1.54715793064047        0.83231769662434
N           -0.25884033920501       -1.34333868214235        0.81044404230223
C           -1.00241919024706       -1.60491097200270        1.92288211951649
O           -0.56380698374107       -2.28604975241513        2.86498961345139
C           -2.35763589851463       -1.02887111249186        1.92758075748812
O           -3.12385164184250       -1.26814023706240        3.01683610734976
H           -5.77021413679916        2.00991219598476       -1.40335141584972
H           -6.47401082655609        0.72890050180064       -0.37360644858516
H           -5.87929183826420        2.23438502066268        0.36744843483807
H           -0.97520043334010       -1.86862855690931       -2.55538975866996
H            0.36956385083062       -2.55301531794114       -1.62658659270434
H            0.68919328194775       -1.62694800928319       -3.10779507328016
H            0.32010612703931        0.90969451992385       -3.09416365340234
H           -0.29162514336972        1.69584129708030       -1.62393854233838
H           -1.35063742080670        0.63258508079464       -2.55966823487172
H            2.20242409405153       -0.88551676759293       -1.34215363016222
H            7.35441192042468        1.38919800070582        1.29315447864444
H            6.35753888518157        2.86464255746329        1.29989659368838
H            6.24041092988051        1.71738167956173        2.63557727417443
H           -4.00396066497487       -0.85340882864056        2.90770004228264
