20
 energy: -38.355920052214 gnorm: 0.000266436977 xtb: 6.5.1 (579679a)
C            3.79297746998738        0.73257327788988        0.24871463250692
O            2.41473099389509        0.40694573384308        0.25257598053230
C            1.73498403847224        0.71204344855514       -0.91820084830601
O            2.33381550894762        1.22936377191591       -1.87520794177765
C            0.37062796847993        0.38135622758463       -0.88120623170997
N           -0.50014051951655        0.57069828916498       -1.87096722719881
N           -1.68102479489269        0.16474160554790       -1.53878425014847
C           -1.60656179383527       -0.36278365809177       -0.16564818983105
C           -1.99791547922413       -1.84942250574882       -0.16191985375000
C           -2.53438039146897        0.45055739863739        0.75110551718162
O           -0.25402106305010       -0.20625387645890        0.23587483337118
H            3.94360582679945        1.80974328148652        0.11178287677095
H            4.19735837131228        0.42955874245400        1.21479843386035
H            4.32227544119094        0.20157932723003       -0.55118183831314
H           -3.01642820499502       -1.96115565333740       -0.52807650180703
H           -1.93024160182572       -2.25429995447515        0.84621418783043
H           -1.32277250974746       -2.40261102633012       -0.81290888126500
H           -2.22290004992013        1.49391906153642        0.74559173610971
H           -2.48577519765247        0.07091733631724        1.77006521478311
H           -3.55821601295628        0.38252917227888        0.38922835116065
