43
 energy: -83.872204276489 gnorm: 0.000237570554 xtb: 6.5.1 (579679a)
C           -4.76856375844942       -1.88139554158034       -0.23892053925727
O           -3.70127568073187       -0.93703516500032       -0.27868034868574
C           -3.97191946274940        0.28574854865189        0.21898861068823
O           -5.07007982294222        0.56968260814474        0.67513774230231
C           -2.75495179344101        1.19307222627995        0.34565590035578
C           -3.13815510247458        2.65121191682754        0.06233645202197
N           -1.68684387779610        0.80426749398052       -0.56221878909527
C           -0.80739865067120       -0.02520747849326       -0.14610267814040
C            0.26926100512631       -0.49378995325241       -1.11775394681125
C            0.07323408441424       -1.98845463233676       -1.40106182644035
C            0.20787962800066        0.31965420306985       -2.41337258734619
N            1.56456185512708       -0.27121414000033       -0.45830117254131
C            2.75330983058004       -0.57722072303663       -1.00378016010769
O            2.93194283162914       -1.14923841893724       -2.06703182314092
C            3.86777932543149       -0.11795704716704       -0.12740455022748
N            3.74142928101519        0.52434002924565        0.99406200050718
N            5.00224330693783        0.76605617927349        1.45411221877356
C            5.81650756481856        0.25739604465152        0.58164130255694
C            7.29549625641729        0.26194827202892        0.61797396364191
O            5.16210050846469       -0.31442087002104       -0.44063548057729
N           -0.76581073714341       -0.55993090070227        1.09859708566132
C           -1.49342770128025        0.03658071170483        2.21761973357892
O           -1.11284634458140       -0.31356617642059        3.36154908360483
C           -2.43150949750124        0.94480873155549        1.81140184482598
O           -3.24085851738023        1.64279791160260        2.73282668954692
H           -4.42191446815675       -2.77584143898949       -0.75357775769942
H           -5.65160875051937       -1.48023259076346       -0.74416574937965
H           -5.02970494768778       -2.12352797917585        0.79512929910378
H           -2.31069499049317        3.30665773770485        0.33173488942599
H           -4.01679610914934        2.92868833617715        0.64248998989550
H           -3.35548256118391        2.77567595376611       -0.99804596366242
H            0.80714158669105       -2.34007173447865       -2.12361890276063
H           -0.92540032014274       -2.14669301065016       -1.80653782454904
H            0.17684689484021       -2.56397347508016       -0.48255995332767
H            0.37924420663972        1.37388667066655       -2.19916333501771
H            0.95873125706008       -0.03116365763404       -3.11873105508173
H           -0.78026726112138        0.21057700588888       -2.85839889694170
H            1.56911622732588        0.24681495980426        0.41010556161208
H            7.63715687952017        0.74818700747466        1.52828314500260
H            7.67379570229486       -0.75932779310614        0.58454951063705
H            7.68770251412611        0.79478902666163       -0.24807136104558
H            0.01943024342566       -1.12980992251435        1.36605061175739
H           -4.15939763428122        1.33723007418710        2.66298906633996
