33
 energy: -57.869332085195 gnorm: 0.000906276945 xtb: 6.5.1 (579679a)
C            4.19633132851703       -0.88841525241166        1.42416197839034
O            3.52034567119400        0.02350046990179        0.55132637617271
C            2.22445393879617       -0.18583799746894        0.36308367184524
O            1.61901503660310       -1.09579203203020        0.89090563054417
C            1.58623898572107        0.79603032988898       -0.55949783953857
C            2.18520307530009        1.91500115561505       -1.07015963955564
O            3.44031389252148        2.29021252733353       -0.80378102387473
C            1.44461536190294        2.80128360919746       -1.96678268173378
O            1.92459937992327        3.81679787689507       -2.44577414391280
N            0.16161629411053        2.38574185752924       -2.22751217701331
C           -0.38050408128457        1.25790711259821       -1.68234762333101
C           -1.78949438814144        0.93647200502405       -2.04889125861874
C           -2.58471545126816       -1.82494212856230        1.16048461783487
C           -1.14175029429383       -1.55718066108034        1.24069297865136
C           -3.55418761933383       -0.76579943075597        1.51343513112713
N           -3.01264266783972       -2.98002363327233        0.77248416177583
N            0.28071408062841        0.49289673642896       -0.88076500820987
H            5.24474534334702       -0.59677343053097        1.42800393905844
H            4.08493618370806       -1.91029472736654        1.05533438600945
H            3.77731069555359       -0.82095347177812        2.43036027341156
H            3.62768217374410        3.12608615308714       -1.27107210018762
H           -0.39448542707832        2.96205821068995       -2.83933908011829
H           -2.46469197516310        1.68562574716570       -1.63541041779841
H           -1.91168987090909        0.93123522829643       -3.13159840308512
H           -2.05554302724750       -0.03927936352082       -1.64999665212696
H           -0.54792969050232       -2.46831789866058        1.23295263175825
H           -0.90135315594553       -0.95601062523608        2.11653962845835
H           -0.84558899004948       -0.95587832957522        0.36901164922486
H           -3.54226680763519       -0.63221535719594        2.59801156287236
H           -4.56518337792584       -1.01721080392138        1.20076287891151
H           -3.24963358638111        0.18251260131685        1.07117876670754
H           -3.99466401200543       -3.17973591947963        0.68433051283753
H           -2.38179801856361       -3.72869855813550        0.53634527350618
