42
 energy: -82.984102185992 gnorm: 0.000376976275 xtb: 6.5.1 (579679a)
C            2.41537250761710        1.63282753257994        4.01684587735427
O            2.89573178956268        0.86777811573318        2.91855567602143
C            1.99290855401204        0.58035973395231        1.95629707016321
O            0.82946189697791        0.97184636339487        2.04161472855439
C            2.50750693620339       -0.21123232119610        0.85088423963443
N            1.53340950493153       -0.47839780174636       -0.08768970349592
C            1.77077855691641       -1.16370842127362       -1.14364409965151
C            0.62546707317422       -1.41064962096900       -2.11610052177824
C            0.90876923320129       -0.79724470831944       -3.49158239427079
C            0.29973613905620       -2.90397727065464       -2.22920279323742
N           -0.48992391670121       -0.70789853161337       -1.48340127165094
C           -1.75091757847035       -0.61027301050070       -1.87683410552327
O           -2.27798431169699       -1.07117437603078       -2.87112713585143
C           -2.52319055941041        0.21077044904829       -0.86304555574477
N           -3.77162483744661        0.56783586658639       -0.83432116151247
N           -3.89956549045544        1.28875783137325        0.30199120896668
C           -5.18906918904143        1.83614781541509        0.65925055356171
C           -2.74404446898868        1.35096890799583        0.93217027007111
C           -2.36276588475202        2.00874502351177        2.19240482737708
O           -1.86897601248622        0.68181252240824        0.21631398336728
N            3.01834276306272       -1.67524732818672       -1.40438431997384
C            4.09358550082802       -1.49125543481444       -0.56231063053739
O            5.18055633272614       -1.97338864508927       -0.85922168415727
C            3.83679174675297       -0.68364144418816        0.69792034347164
O            4.77987022737344       -0.49728326571176        1.48347391374348
H            3.25189710571279        1.77125255229628        4.70121239461126
H            2.04749905395921        2.60481033844649        3.67640334325645
H            1.60167164041574        1.10696567883869        4.52443084218482
H            1.12121745702180        0.26603908192945       -3.38946359795399
H            1.76614423813854       -1.29119167644673       -3.94449818208291
H            0.04269679385438       -0.92782607785594       -4.13883576553283
H           -0.55956828725676       -3.04695240847679       -2.88269812400739
H            1.15343634458770       -3.43538263502849       -2.64559755546032
H            0.07135437173833       -3.31095925886844       -1.24530211827076
H           -0.18586196823424       -0.26319122114102       -0.60672247023134
H           -5.62760023348786        2.28949337065317       -0.22735791171799
H           -5.82655305991024        1.02849634390358        1.01732053594298
H           -5.04685126158029        2.57758779910944        1.43994331238461
H           -2.57960447751613        3.07549062488496        2.14135245809221
H           -2.93037817851945        1.58888325634972        3.02269249160251
H           -1.29414429823391        1.85065172817715        2.35559388826610
H            3.18442024638055       -2.20664347846906       -2.24333185601576
