42
 energy: -82.997195659676 gnorm: 0.000383625134 xtb: 6.5.1 (579679a)
C           -4.90353370124128       -3.49548813128831        0.29311610326963
O           -3.87581680076796       -2.52077873414299        0.11318796340197
C           -4.16151078513701       -1.27613178680591        0.53682927086722
O           -5.22432231120050       -0.99611885744483        1.04541337125049
C           -3.04003302456521       -0.33858887794786        0.29521196774132
N           -1.94273091234174       -0.87907602836957       -0.28071086971852
C           -0.90566629877150       -0.15862931864974       -0.55725899298315
C            0.30424807535415       -0.74303795788864       -1.24698243369443
C            0.26421522735075       -0.33339422780032       -2.72759195757731
C            0.30977101508489       -2.26657605895843       -1.09013954339105
N            1.49265950477599       -0.17038401578349       -0.60195689758670
C            2.75558091171679       -0.42473816616719       -1.01816623056759
O            3.06267728719870       -1.05977676656411       -2.00900801368381
C            3.74273229386569        0.19849983913235       -0.10041523634159
N            3.46864392019641        0.85102771977772        0.98968113891989
N            4.65879398582605        1.24612098657601        1.52042875574333
C            5.58424214650110        0.80879274376631        0.71998417203234
C            7.04782117362168        0.97911360791498        0.85197397696200
O            5.06801431227798        0.13819311514532       -0.32010318545118
N           -0.91089954248736        1.18966851730623       -0.29020616755181
C           -1.93878284014169        1.80560898459855        0.28755917275697
O           -1.74427246035992        3.10148499152558        0.46201562078290
C           -2.72521187205540        3.94861686834816        1.07752677078061
C           -3.14145043114273        1.04507097814018        0.65125956647748
O           -4.10846822795251        1.59370769680444        1.19749227834892
H           -5.13816077546598       -3.60808920276308        1.35504649443092
H           -4.52048588920969       -4.43196852359792       -0.10758136402671
H           -5.80725672160070       -3.19704794933380       -0.24517839199966
H            1.08347174834024       -0.79791936072260       -3.27238731098204
H            0.34679622843944        0.74833754443887       -2.81435667144391
H           -0.68015706814624       -0.65496747965943       -3.16411832881203
H            0.37363894589930       -2.53009830537269       -0.03548490300308
H            1.16047120527319       -2.69127901295571       -1.61946593302418
H           -0.61191871894925       -2.67478552177497       -1.50188691255433
H            1.38341399001426        0.26821800272644        0.29955962719776
H            7.26954246263231        1.56074962876584        1.74338621748159
H            7.44287005984248        1.48995239051871       -0.02633056177542
H            7.53139432608231        0.00453982705076        0.92138830875539
H           -0.10990610028527        1.75409892420220       -0.53580793433222
H           -2.28247847941885        4.94436052941490        1.08318364095790
H           -3.64940845294533        3.95115425638889        0.49721060709856
H           -2.92852840610874        3.62155613145130        2.09863681524651
