33
 energy: -58.559658451080 gnorm: 0.000304491902 xtb: 6.5.1 (579679a)
C            3.88317209270033        1.32367544929449        1.80664903559007
O            2.67984485747169        0.88345011327458        1.18702707755071
C            2.81916395598098        0.18555351555212        0.04681495027741
O            3.92896925792590       -0.04471028828965       -0.41334234049998
C            1.53410982850357       -0.25196044226487       -0.54424409216103
C            1.52329002607204       -0.92866938210477       -1.77087114104260
O            2.68074258076034       -1.30574171346303       -2.45404046577857
C            0.27753376819583       -1.18947291183616       -2.42023619896760
O            0.11531499984219       -1.70546074626470       -3.54152283737616
N           -0.83602920713812       -0.71170713109550       -1.73445814877706
C           -0.80840635484357       -0.50101323206601       -0.29031458850091
C           -1.00844721059209       -1.86393446731480        0.42277276004800
C           -1.92100393633047        0.53221275298807        0.08007158707442
C           -1.88325751707938        0.83944855855379        1.58739191336985
C           -3.33028303489928        0.07759448248452       -0.31378959630649
N           -1.61622674208556        1.74956173465865       -0.67753225722976
N            0.44863354820225        0.06099214564810        0.15658524616045
H            4.52649106284287        0.47100364184518        2.04212400923604
H            4.42638504056050        2.00616995666115        1.14665934655782
H            3.59916994883097        1.83971852196535        2.72236223771959
H            3.45795102240735       -1.02013234217807       -1.94108555785739
H           -1.70911124898133       -1.08256255040331       -2.08107794642580
H           -1.96643997809660       -2.30887448093156        0.16188165004434
H           -0.95233782433309       -1.73403343593155        1.50133550527272
H           -0.21478078213967       -2.54484253865719        0.11496985479196
H           -0.85818921653978        1.04497048904661        1.89835781916646
H           -2.49659557180689        1.71432122140004        1.80185638787823
H           -2.26939515042463        0.00141890792463        2.16699078350482
H           -3.59945384575954       -0.85261043489042        0.18426331452423
H           -4.05291158814874        0.83960489991656       -0.02055159840586
H           -3.40666099162170       -0.06154077039986       -1.39209428677975
H           -2.27820223194889        2.46822672070026       -0.41842005615225
H           -0.69303755752794        2.06934775617761       -0.39096736650546
