47
 energy: -79.506964249802 gnorm: 0.000454711042 xtb: 6.5.1 (579679a)
C           -3.40639527104452        0.14445040338401        2.33687012194493
N           -2.52174532109971       -0.34626046042903        1.26707759712359
C           -2.49422490225653        0.26892918814859       -0.00634156329716
C           -3.60046137115993        1.03955065602278       -0.63336858153473
C           -4.96711172695450        1.25087199362048       -0.02720001439273
C           -3.22046931952701        2.08825562675398       -1.65594249017413
N           -3.36010783496151       -0.35534082589717       -1.07904641259257
N           -1.20856300240123        0.51755470423097       -0.55022102415861
C           -0.23944546535279       -0.26611834849206       -0.28075144849054
C            1.07957974504292        0.09627117879632       -0.94189142894199
O            1.22583731725957        1.19471063341114       -1.45457260419189
N            1.99991182663764       -0.87278413440091       -0.97212286789211
C            3.27952711500669       -0.65970177549962       -1.64968037200118
C            4.25466590321755        0.04512512961812       -0.73207196037043
C            5.07806349205310       -0.69208580294354        0.11527439391379
C            5.96443407422383       -0.05096979829295        0.96981369375504
C            6.00205452851516        1.33172785425431        0.95780802400599
F            6.85684419843700        1.95974679248328        1.78032795826544
C            5.19471135592544        2.09397040193556        0.13241758767054
C            4.31517709360392        1.43680394134265       -0.71587252848280
C           -0.44828596102287       -1.48746499210100        0.57871053353006
O            0.73683214249091       -1.86466175254326        1.22256460163142
C           -1.49180728964224       -1.16337539407074        1.65170640593653
C           -0.96910402118641       -2.64848790502897       -0.29692921428560
O           -1.38636223006207       -1.61631700435377        2.76964896022222
H           -4.37389217086591       -0.34960088649200        2.27718090394415
H           -2.93769989646946       -0.10061754898417        3.29002588816432
H           -3.52016483238608        1.22206440827375        2.24983324761682
H           -5.67684704857499        1.44883263537264       -0.83069981034110
H           -5.30672283667383        0.37655331086029        0.52077304732195
H           -4.95133821731588        2.11376845042373        0.63692724279790
H           -3.16637070928655        3.05688827212428       -1.15922386619123
H           -3.98012260184857        2.13495176850451       -2.43406636114718
H           -2.25505004205483        1.86491483404224       -2.10674604258877
H           -2.93161176371291       -0.50836962622594       -1.98081287333685
H           -4.02007684274176       -1.05862388108552       -0.78606163532241
H            1.86984618672103       -1.73565385477926       -0.47073044734145
H            3.65905954333639       -1.63961847404496       -1.94422684391401
H            3.08963887057292       -0.05794409268110       -2.54347074403252
H            5.03000127507558       -1.77427113842460        0.10798647389278
H            6.61207395432655       -0.61100515110873        1.63158653738207
H            5.25438184349907        3.17448843413654        0.15469665240433
H            3.66748993970368        2.00969762067450       -1.36927299044528
H            0.51892245610976       -2.22754639553582        2.09941599557778
H           -1.13649393480951       -3.51690687750856        0.33735519420342
H           -1.89781857384537       -2.37387219612291       -0.78725248556881
H           -0.22075867448160       -2.89252692137750       -1.04801245027495
