16
 energy: -34.111589699503 gnorm: 0.000881742207 xtb: 6.5.1 (579679a)
C           -1.60806550314990       -1.29402350964042        0.56767907014732
C           -0.38104695696533       -0.54742932478689        0.19498718555605
O            0.84041465854113       -1.14110810723972        0.16979498575667
C            1.73147991482621       -0.08113170365012       -0.22061932060112
C            3.04189234815836       -0.18817730902101       -0.43191950345792
O            3.98538215257560        0.54202892941490       -0.75138876089949
Cl           3.60022718838339       -2.09594742385349       -0.05034231291474
N            0.97317554025900        1.11526638616474       -0.40460405427211
N           -0.26922297187822        0.71581107374374       -0.12570839640026
C           -1.34062776300056        1.67772516831187       -0.21634140158231
H           -1.38890207833001       -2.36003574265478        0.57721452990944
H           -1.96352080891365       -1.00169689052798        1.55815387958374
H           -2.40902363744514       -1.09941578058478       -0.14555092604613
H           -1.95562685505233        1.62907436365142        0.68031290262459
H           -1.95795754223585        1.46229387158238       -1.08821350043654
H           -0.89857968577268        2.66676699909020       -0.31345337696724
