38
 energy: -79.627253864704 gnorm: 0.000279689229 xtb: 6.5.1 (579679a)
C           -6.48363315992976       -0.99917471421100        0.26502283162536
O           -5.21740445324919       -0.79069052710085        0.87206752150880
C           -4.23868067406520       -0.32316137821779        0.05437305404305
O           -4.46975544561320       -0.10689499275403       -1.13042395941067
C           -2.95286131116382       -0.11542314390972        0.70150567127194
N           -1.98386555808040        0.35019602333180       -0.17157523632821
C           -0.79790787096741        0.58470737046816        0.24362703906668
C            0.26643924460077        1.13169260290499       -0.68543318291183
C           -0.13258244134685        0.90505401554748       -2.14587891227504
C            0.47169777004650        2.62321757664287       -0.40333406216356
N            1.53944992292029        0.45502881950353       -0.39973628162768
C            1.67072642303659       -0.88507899393862       -0.43566060571504
O            0.77060927758392       -1.67494908946103       -0.66956490024861
C            3.05203863781192       -1.33921815750188       -0.12424934166152
N            3.47825023367533       -2.56065184989152       -0.03346544426887
N            4.79991461230971       -2.49279938550970        0.29698068550225
C            5.09736034092657       -1.23472786742657        0.38746354010793
C            6.40577805565691       -0.63307434074729        0.72306747398287
O            4.03621445138356       -0.45075640944596        0.13387360031032
N           -0.43086503141655        0.40533010977397        1.56240511430063
C           -1.27990562761925       -0.06303267664360        2.53002262223204
O           -0.87346847189038       -0.21059050767041        3.68096524948563
C           -2.69214041498669       -0.36230790714289        2.07499672566213
O           -3.50624051039564       -0.78914315852503        2.91545164820808
H           -6.41639558057467       -1.75371058393630       -0.52545551953639
H           -7.16028841627449       -1.34440589665902        1.04601994866623
H           -6.86404386262130       -0.06905415673684       -0.16878472403018
H           -0.26005924486540       -0.15909227087958       -2.34229523924518
H           -1.07611449062270        1.41332765866333       -2.34170470178512
H            0.63490741709902        1.30288896713208       -2.80612601946714
H            0.76279190136866        2.77367218617361        0.63475809868503
H            1.24996889386834        3.02480992165928       -1.04915592510014
H           -0.45550887869719        3.16307355345670       -0.59091658192783
H            2.35596667779822        1.02232289925247       -0.26215594617458
H            6.70298519802667        0.06777750042649       -0.05601236215078
H            7.15572459865016       -1.41427092277514        0.81991202883604
H            6.33202220853979       -0.08096052030217        1.66004373404193
H            0.50887657908067        0.63006824644600        1.84244235848885
