46
 energy: -86.342249262690 gnorm: 0.000760124809 xtb: 6.5.1 (579679a)
C           -5.69200317963157        2.03752576838475        1.44691592427647
O           -4.50698334986568        1.92450075574751        0.63011225165424
C           -3.76082121689095        0.84837237397033        0.83270468838175
O           -4.01023392366719        0.00857071132500        1.65879186823812
C           -2.54399073833941        0.83507714669430       -0.04899774296712
C           -2.01069943472726        1.96199234406175       -0.60622363357416
O           -2.51689228417321        3.18064755945578       -0.55473261966151
C           -0.76036744356184        1.88506993267724       -1.36725087288890
O           -0.29346156058750        2.79079218910033       -2.01283179751809
N           -0.10048284718341        0.64008264675887       -1.28206095484088
C            1.14003661353610        0.62871189709641       -2.07836370475690
C           -0.58894696348746       -0.42831470724823       -0.62440870653845
C            0.32477661888369       -1.62721021073710       -0.32056824100655
C            0.32685049308101       -2.63377949982564       -1.48310917071033
C           -0.01022233856786       -2.32832219044999        1.01009943117898
N            1.65035865616637       -1.03815022855654       -0.11118728904378
C            2.81147190353494       -1.75514696387621       -0.15067260132692
O            2.92007663108312       -2.90786834751252       -0.51271919627300
C            3.96493093586848       -0.92546915058879        0.26169557404077
N            5.20750367311182       -1.27580865610990        0.36968735416160
N            5.89471800497541       -0.17156111565879        0.76879257709641
C            5.03121555241793        0.78987803585234        0.87845274580186
C            5.27594069322123        2.19022464234346        1.28428384375326
O            3.78847114400513        0.37999972204084        0.57002056554471
N           -1.84348821993280       -0.37081296755267       -0.17110739190972
C           -2.62973995208157       -1.59882872591125        0.04824696568699
H           -5.40475766037703        2.10637577402027        2.49714699467678
H           -6.19947979590373        2.94244757688208        1.12329888329069
H           -6.32243377565456        1.16100565062634        1.29140299541946
H           -3.36691535891858        3.23423198160860       -0.07982864961061
H            1.40337668893622       -0.38262426642477       -2.35566265727663
H            1.94218075399554        1.09377974866941       -1.50839163067869
H            0.94703497118774        1.21567508742534       -2.97644854206241
H           -0.68194050208901       -2.75570530293687       -1.87077890594963
H            0.68710960390987       -3.59802340675070       -1.13022178072860
H            0.97096568159364       -2.29998451483825       -2.29296822979076
H            0.89545824039012       -2.82853299738768        1.35224260160080
H           -0.31267809212108       -1.60535078549370        1.76416231709705
H           -0.77798162163023       -3.08717882119614        0.89467036017976
H            1.66477520904921       -0.19457827681463        0.43969343042165
H            4.70400447837788        2.41922331525535        2.18341921762279
H            6.33638519313335        2.33844612955529        1.47617534171247
H            4.94617311889936        2.86737553693298        0.49658359711848
H           -2.19220443082431       -2.40848849416142       -0.52357357277845
H           -2.67238442012331       -1.84484142554518        1.10624459071410
H           -3.63471074902229       -1.41342647091572       -0.32274022777560
