46
 energy: -86.340661511906 gnorm: 0.000644896191 xtb: 6.5.1 (579679a)
C           -6.33666974047828        0.59609681117383       -1.70987944789823
O           -5.12058370593907        1.26730517983149       -2.09635216713341
C           -4.00581350560945        1.05645144205706       -1.52172368556218
C           -2.83332362485395        1.77528438092939       -2.05362173950273
O           -3.97674356443279        0.23874081623437       -0.52338758090457
C           -2.83400272537073       -0.21916213733787        0.14567185362190
N           -1.67399922061755       -0.24992967093850       -0.53576484297295
C           -0.60332194834394       -0.73474826850999        0.03808499154233
C            0.63432059456185       -0.83462677239314       -0.84340047987967
C            0.43583080843476       -0.02432106183503       -2.13060094428414
C            0.85826256489362       -2.31379136957618       -1.19760571118452
N            1.77325024878479       -0.26464512302053       -0.11921843311225
C            3.03931236107584       -0.27760870354841       -0.61764991747000
O            3.41214465586505       -0.90717902206877       -1.58689795063774
C            3.93236305670150        0.56356761554721        0.21385690493632
N            3.58409216719581        1.26150460207129        1.25374395259584
N            4.71010373149816        1.87663134713473        1.70764519867467
C            5.67513696506837        1.51613657708743        0.91426613691370
C            7.09809305079741        1.91511379893305        0.98096302131044
O            5.24527503708441        0.68783856504856       -0.04796344421331
N           -0.63709263609078       -1.19276615227549        1.31591651786469
C            0.50464229788071       -1.76504854232854        2.04353352123364
C           -1.79928604632773       -1.18195168064587        2.10552019648555
O           -1.76988444321607       -1.59660851703524        3.24844915916429
C           -2.97634142217595       -0.65897710073135        1.42859906141272
O           -4.11796564122250       -0.64496404742448        2.13162788428950
H           -6.12268411080148       -0.44487642761154       -1.47426025406790
H           -7.00520922309398        0.68158866762158       -2.56396787312640
H           -6.75212455259900        1.10651414209026       -0.84212122442541
H           -2.19845361140283        2.11909001811517       -1.23935325471810
H           -3.16099725806446        2.60181322229600       -2.68081746417947
H           -2.24664397338555        1.07755485312894       -2.65358650694523
H            0.25090152962618        1.02056058204066       -1.89025369313387
H            1.33363420632240       -0.09541881208126       -2.74275736236374
H           -0.40810301847250       -0.41801781538531       -2.69273624318630
H           -0.06436106479239       -2.71686381048592       -1.61207023988014
H            1.13431243185653       -2.89574066860220       -0.32178489322644
H            1.64633197983955       -2.40217825525635       -1.94277276471175
H            1.56421313022441        0.45097965003128        0.56110134273430
H            7.38985866235758        2.40468634649564        0.05182196325355
H            7.72590465700939        1.03306725999393        1.10898283796709
H            7.24885274044970        2.59516770802291        1.81578775631713
H            1.40337042840126       -1.73334325075493        1.44224857299137
H            0.64697857420577       -1.18750757980242        2.95716788723338
H            0.25965221610622       -2.79418467021313        2.30671050083970
H           -4.86323405895787       -0.29123212609637        1.63229985733254
