42
 energy: -83.011431086331 gnorm: 0.000362567489 xtb: 6.5.1 (579679a)
C           -1.71346712703467        4.15260610397491        1.08042637915518
O           -1.60879769833115        2.76006496874584        0.77100207007352
C           -2.63638694318402        1.99497106591251        1.14296802696916
O           -3.60562966401958        2.42714433042566        1.72133937440403
C           -2.44339480169263        0.56682182033064        0.74642388584115
N           -1.23820170193737        0.22726408894885        0.24040392049720
C           -1.02947411395024       -1.01095363606889       -0.14191855661599
C            0.31596936201975       -1.38490602062429       -0.72860552540307
C            0.16435169450994       -1.49709372514058       -2.25392118571336
C            0.79671958946777       -2.71161954805931       -0.12772866237118
N            1.25020692302911       -0.31412906574462       -0.39485477987017
C            2.55025331256033       -0.31729578912216       -0.73342497105733
O            3.11499935585319       -1.17978749215594       -1.38660132280973
C            3.24530331907358        0.88283679417157       -0.19344806472439
N            2.70851847980121        1.82757577905814        0.51815881495221
N            3.70602955928543        2.70667591062017        0.82074512198611
C            4.78759627309364        2.24050272273055        0.27478792952847
C            6.14464392344597        2.82880732588908        0.31346532619090
O            4.56175257799156        1.09177989433380       -0.37999132274081
N           -1.94387673997321       -1.99509716449197       -0.08593146051358
C           -3.12316432090792       -1.69687337005771        0.41226058862344
O           -4.08071408085403       -2.62280045972373        0.51264475903414
C           -3.76341583048598       -3.94411826177739        0.07254999797537
C           -3.44008078425458       -0.38869958091512        0.86584510836273
O           -4.65443144148848       -0.11948675526163        1.36731422888896
H           -1.68707188489756        4.29953452878514        2.16289572297600
H           -0.86266382439628        4.64295994532392        0.61182763833989
H           -2.64837071337696        4.55613738610842        0.68412339569537
H            1.10759843779381       -1.80338364967209       -2.70299080197551
H           -0.59901595275601       -2.23872658058000       -2.48261326102402
H           -0.13605583117218       -0.53595962097722       -2.66876321428401
H            0.95510384886802       -2.59934949385237        0.94389667221267
H            0.03883582835944       -3.47447692636568       -0.29613866887054
H            1.72767418282436       -3.02399608670778       -0.59705798179563
H            0.87513235450111        0.46634952500592        0.13345788178705
H            6.85781869744272        2.09579277519485        0.68954914698455
H            6.14441202510125        3.70497347509164        0.95717645891194
H            6.45503416108180        3.11696183472099       -0.69107856281128
H           -4.66513911695641       -4.53835708078303        0.20747207204839
H           -2.94519657387564       -4.35287840841533        0.67113602572854
H           -3.46950190711638       -3.93047671730924       -0.98003184177365
H           -5.21390485343875       -0.90929484156765        1.36479063719811
