46
 energy: -87.048692983008 gnorm: 0.000807268366 xtb: 6.5.1 (579679a)
C           -5.78850351062666        1.75136083949397       -1.15083087439042
O           -4.56062191824705        1.12358331083041       -0.78993523363597
C           -4.33777946315934       -0.08785162066369       -1.33265798551013
O           -5.14510284907533       -0.61471816704020       -2.09813231174949
C           -3.07949714881651       -0.70274814782079       -0.93616460953859
N           -2.26124080420837       -0.00992983553705       -0.08285493246268
C           -1.12877617933506       -0.50377263602987        0.29828910293661
C           -0.31731911094186        0.36000759713626        1.26107653073697
C           -0.26119837065194       -0.29974007493546        2.64754420851669
C           -0.98517453802491        1.73852870556593        1.39078488760032
N            1.01775277619786        0.54031231722331        0.70155129016676
C            2.02733023864499        1.20267711885050        1.28918091878115
O            2.05668056191092        1.59161168653983        2.44774802790883
C            3.21541372798067        1.38389151281876        0.27947987733944
C            3.79242825936530        2.79496052465149        0.43307837485074
N            2.74196095581857        1.11061025547426       -1.06682040051606
N            3.41110660682591       -0.00328613722974       -1.48522145085439
C            4.22225743193612       -0.38821327512778       -0.56623141476311
C            5.13943441257876       -1.55716384867471       -0.60565186415051
O            4.20388557715746        0.39830174130609        0.56724991410147
N           -0.69109034405277       -1.73408920106711       -0.12825898888844
C            0.56082595802268       -2.36579765442091        0.29036724527812
C           -1.46489016309535       -2.54702432416215       -0.97856799611848
O           -1.05213823776482       -3.66342970915662       -1.29922128470479
C           -2.70862814634418       -1.95818159777065       -1.40073247253560
O           -3.47529721533796       -2.68864321023165       -2.23829897653416
H           -5.82346286632635        2.70255379984968       -0.62252660672455
H           -6.63628263844096        1.12689478146419       -0.85633241770308
H           -5.82783744121281        1.91966043444151       -2.23048604701940
H            0.32945848585822       -1.21220841308264        2.63459845171142
H            0.17985988184110        0.38729657025014        3.36756169585012
H           -1.27344727325345       -0.54152504536490        2.96767454809215
H           -0.39316171253561        2.36681881443425        2.05454841916195
H           -1.98673703977448        1.62872026827369        1.80230312815998
H           -1.05730518246542        2.21600386915812        0.41475243687525
H            1.13988744934153        0.50406890217006       -0.32237884517652
H            4.06134717234052        2.97376438328722        1.47294761490557
H            4.67684128606145        2.89351257247321       -0.19265148482790
H            3.04774961032433        3.52360192810138        0.12008904769033
H            4.87429540096221       -2.28108717729585        0.16705434787221
H            5.07341867139349       -2.03614892443704       -1.58045874498700
H            6.16905032292697       -1.24242942746459       -0.42933511033666
H            1.00720172426945       -2.85435882330785       -0.57727395738210
H            1.25722299453874       -1.63339013796030        0.68410041953308
H            0.34910572204863       -3.12369343942017        1.04587931111186
H           -4.29902407466365       -2.18931210559546       -2.44200178866703
