42
 energy: -82.939889886277 gnorm: 0.000707246619 xtb: 6.5.1 (579679a)
C            2.13185498628824        3.53510968213389        0.81602962512825
O            2.18311275406512        2.18518301713677        0.35392259130676
C            3.36643642856250        1.77240940028076       -0.13451392532087
O            4.33521175515808        2.49690716964441       -0.18561781999002
C            3.31395835338195        0.36147359145029       -0.58180743270913
N            2.10798703328480       -0.24016411842102       -0.47436926121250
C            1.94047391330936       -1.48099290379298       -0.82607499336047
C            0.57337287371196       -2.11257340419438       -0.69690469809170
C            0.61942046366886       -3.28165290359280        0.29848047573569
C            0.07035175132710       -2.57627173044165       -2.07263197537797
N           -0.30824399242457       -1.06722339179373       -0.18748814182037
C           -1.61963586631729       -1.23103858518759        0.05510710345869
O           -2.25672024047359       -2.26060376489801       -0.07419348082632
C           -2.23262009089600        0.05053045802047        0.50764086137064
N           -1.55762443201229        1.20599623857373        0.65347046052643
N           -2.38123668259558        2.11578383311556        1.02291233087387
C           -3.69846509183724        1.54414288393585        1.12966216030656
C           -4.21597772620107        1.64436263461521        2.56648074491530
C           -4.64541531263044        2.20212213238273        0.12154869720196
O           -3.50414565821149        0.17322834800903        0.77805245803760
N            2.96144010687307       -2.23458250497986       -1.30855112072491
C            4.25480408839101       -1.76515918633769       -1.48468947434373
O            5.11312011847302       -2.50269630152004       -1.92579687836211
C            4.47521275563904       -0.31738567832407       -1.09188174222826
O            5.59140476716271        0.17970509007585       -1.21867307447385
H            1.11600740189900        3.70610976949439        1.16647134228507
H            2.37142339282068        4.22435091715352        0.00182903834282
H            2.84231082785029        3.68306302885456        1.63386462693955
H            1.32025510650618       -4.03565715406780       -0.05314048147050
H            0.93638795418054       -2.92530340522786        1.27725225199868
H           -0.36825625815080       -3.73076596138063        0.38224551000959
H           -0.91910763691055       -3.01754995619700       -1.97060057732566
H            0.01705482095767       -1.72844908092820       -2.75364172860575
H            0.74780552424413       -3.32277169855013       -2.48091080438457
H            0.12343194872137       -0.15700404492395       -0.04285958088173
H           -5.17978721192827        1.14569051719815        2.63434418030222
H           -4.32415494351449        2.69244946814575        2.83339983945384
H           -3.50915804500411        1.16577013382250        3.24075960769575
H           -4.74870235348219        3.25635915466271        0.36488540680255
H           -5.61586799580138        1.71457535697258        0.17244853689381
H           -4.23570414382708        2.09566071684185       -0.88060453418155
H            2.80798455573549       -3.19736876776499       -1.56585512390148
