43
 energy: -83.871506447993 gnorm: 0.000225535617 xtb: 6.5.1 (579679a)
C           -2.69720548960523        2.36441212012252       -2.46052434148554
O           -2.46013612689688        1.56275375488945       -1.30487429101662
C           -3.53188786787594        0.91873820394031       -0.80629174005626
O           -4.63427712540729        1.00428151951943       -1.32571340413157
C           -3.21586421085791       -0.05481197830197        0.32371305409914
C           -4.33403100224216       -0.01893865520441        1.37713942029831
N           -1.95716244353447        0.26829263446433        0.97683044233859
C           -0.90088291966154       -0.36781277913196        0.63949588145443
C            0.39439743382565       -0.03139496163997        1.37088837901453
C            0.58148874458903       -1.06069530846373        2.49488802044166
C            0.33499300641980        1.39256817865192        1.93195178210750
N            1.50130260073918       -0.13133864412325        0.41162450329069
C            2.79517280066342        0.01816682905528        0.73926226189171
O            3.23531426234185        0.22558885731978        1.85885924850435
C            3.66602842279823       -0.11548135312662       -0.46247592514236
N            3.26650130654862       -0.31193661204162       -1.68246826576380
N            4.38680821319557       -0.38558166447587       -2.45676352229741
C            5.39764207081571       -0.22987862807031       -1.65828319944222
C            6.83469593027097       -0.23129025889167       -2.01034963431739
O            5.00880227186810       -0.05396962832006       -0.38650725316669
N           -0.83728048756515       -1.34396021623272       -0.29878617302736
C           -2.04153338722754       -2.00665821991960       -0.80505475436793
O           -1.84485801487816       -3.07803577568415       -1.43047836282038
C           -3.19255927931560       -1.36235680193975       -0.45229627088270
O           -4.46123324310720       -1.86048224672357       -0.82360716597659
H           -3.02226468209304        1.74294431402419       -3.29963439005008
H           -1.75887071418343        2.85936377526830       -2.70466682726625
H           -3.46851966890125        3.11134572659626       -2.25240733956774
H           -4.31508910746102        0.93445397499512        1.90383737062636
H           -5.30414781825654       -0.14522187705491        0.89918750377852
H           -4.18232811964645       -0.82200976895167        2.09729715534400
H           -0.29359360449484       -1.04202951163263        3.14328392119290
H            1.46389805649919       -0.82919657062633        3.08791983758183
H            0.68940243970883       -2.05873687551708        2.07206142587955
H            0.23745817833954        2.10792394724549        1.11612038201678
H            1.23685050919830        1.61630707992199        2.49855549501280
H           -0.53238830326161        1.48555580507070        2.58423113600649
H            1.27566090074949       -0.23353598714847       -0.56849766931370
H            7.35933736075694       -0.99393679828493       -1.43564872211983
H            6.95028974039155       -0.43011454759840       -3.07273722461499
H            7.27869048968615        0.73475735717603       -1.77110200721758
H           -0.00958624242399       -1.91481223053437       -0.35311968016129
H           -4.89903188050351       -1.23323317861845       -1.42154205667359
