47
 energy: -79.492665489178 gnorm: 0.000532067774 xtb: 6.5.1 (579679a)
C           -3.26763923003459        1.79518758454548       -1.72862287803498
N           -2.36284772732370        0.74731290214460       -1.24760266257729
C           -2.30940708955044        0.30300558604436        0.00875912626034
C           -3.36443465644047        0.49894182308892        1.05792894901358
C           -3.28782853020983       -0.66208365061621        2.06870963610683
C           -3.05621657978769        1.83219781506405        1.76874321502879
N           -4.68106392448656        0.56929629931290        0.46019446248564
N           -1.17199541529567       -0.26578043717147        0.45229647635725
C           -0.25358056164960       -0.75396936232951       -0.31318136851447
C            1.01618919200223       -1.16701525149445        0.40960564180448
O            1.00533171295175       -1.25545495877148        1.62595870138976
N            2.08310245799991       -1.40950603525808       -0.35707350986531
C            3.36323796926479       -1.78014564882250        0.24556690726230
C            4.19963083523539       -0.54674994719501        0.51401839950179
C            3.92061072744958        0.25561040729561        1.61915431084555
C            4.67578341060461        1.39122850233255        1.87232983621307
C            5.70645991263231        1.70198814604018        1.00265667102803
F            6.44233563775425        2.79728425389565        1.24201164445093
C            6.00868494759612        0.92811399094469       -0.10297362753001
C            5.24124254492717       -0.20357234252052       -0.34353482645284
C           -0.59479528263506       -0.92773621727757       -1.75745874218941
O            0.52625024128983       -1.05520103017598       -2.56994600628901
C           -1.43750833252255        0.26309327403565       -2.20909152353815
C           -1.52276336866528       -2.16802707598832       -1.91405775917698
O           -1.41702721183723        0.68837756272274       -3.32640434007754
H           -3.49897552955941        1.59115121220275       -2.77256093227365
H           -2.75939802067044        2.75521376910150       -1.64307147284773
H           -4.17042668610253        1.78767659853027       -1.12143218449638
H           -2.31204293084588       -0.68834713371469        2.55166160490239
H           -4.05874374390214       -0.51889974206982        2.82267692292617
H           -3.46081850041922       -1.60813039152892        1.55911300368296
H           -3.75991463887354        1.95684035993194        2.58960904638990
H           -3.16899203960471        2.66146544244028        1.07334470985305
H           -2.04124968329175        1.82498301577112        2.16266851938813
H           -5.36100914856270        0.83411212130306        1.15867494139386
H           -4.94175914215090       -0.32772641660518        0.07741814968986
H            2.04936808635598       -1.28186632416271       -1.35550740779152
H            3.15141315854675       -2.31087877688129        1.17844599406738
H            3.87163923342446       -2.45030887765682       -0.45002062836473
H            3.10841739323590       -0.00987887024522        2.28548320658362
H            4.47153221576218        2.02326645641317        2.72687654852941
H            6.82312650220326        1.20462204416170       -0.75978088344542
H            5.46043593380893       -0.82433673271570       -1.20373665511671
H            0.31539578207565       -0.82382254711557       -3.48781470714230
H           -0.93102225289644       -3.05776823748692       -1.71184234508424
H           -1.89083484758249       -2.20468239896954       -2.93661558667131
H           -2.35789282022234       -2.10907876054427       -1.22157957767928
