16
 energy: -34.130444763611 gnorm: 0.000223119418 xtb: 6.5.1 (579679a)
C           -2.59489405213426        0.74046046002803        0.30962810032273
O           -2.13365165660000       -0.41017061073338        1.01890600610690
C           -1.40335268297982       -1.34431737406744        0.32068503963651
Cl          -2.46226224114118       -2.35874102787108       -0.78738262690983
C           -0.19342874022852       -0.97912596460465       -0.29354332932214
N            0.51545273914153       -1.67144050856449       -1.18266183407596
N            1.76660237911654       -1.07831256289122       -1.23187366378526
C            1.76006358361726       -0.10024115437842       -0.39900893808191
C            2.87520040179442        0.83093827956912       -0.08373262107005
O            0.56462882107375        0.04100796611998        0.24281012161585
H           -1.75487195991222        1.32657545307973       -0.08353772694928
H           -3.15973989516434        1.35164250820641        1.01592548560380
H           -3.24991401094958        0.45172450593059       -0.52192747812774
H            2.60559439087327        1.85557316827669       -0.34253548318617
H            3.75837834789424        0.54165613644173       -0.64911908600152
H            3.10619457559937        0.80277072545849        0.98168403422420
