47
 energy: -79.482552572853 gnorm: 0.000542374003 xtb: 6.5.1 (579679a)
C           -2.83122556081248        2.27045385541530        0.55868040539811
C           -3.10705288808602        0.88336699153931        1.16499935280573
C           -2.75069014368604        0.88705204939791        2.66219777336612
N           -4.51289193967777        0.55545795564249        0.98728611662142
C           -2.17543500741991       -0.09355570396669        0.46771217256188
N           -0.95011882267238       -0.04586728982093        0.76827250364763
C            0.05719618898934       -0.80358893634271        0.20686790814475
C            1.40197425991409       -0.53025699302586        0.83745671513747
O            1.50288111953975        0.28671902065982        1.73937589449686
N            2.43303060803781       -1.24082920782937        0.35898467657121
C            3.78047374748064       -1.04784396132041        0.89759789997497
C            4.48927475220934        0.07175961635619        0.16536924211534
C            5.32165154505653       -0.21134788276988       -0.91459527540230
C            5.96260471324766        0.81252966274314       -1.59899077961810
C            5.74879143591441        2.11372526145111       -1.18172096049730
F            6.36468465978729        3.10949281789039       -1.83754147047911
C            4.92510804714625        2.43015541701406       -0.11587414118942
C            4.29359756774700        1.39460214989144        0.55758429020520
C           -0.24006755745923       -1.65244292289626       -0.81470862895301
O            0.67384738395925       -2.38795096352484       -1.46017057981517
C           -1.60070527616686       -1.81333563374860       -1.28955790122533
O           -1.92881328607507       -2.53264295971693       -2.18989487215695
N           -2.68076414413622       -1.05436376189108       -0.56292766753030
C           -3.49649235624104       -2.11267749771702        0.11495926513302
C           -3.49060661684252       -0.36026996846051       -1.61031919643326
H           -1.76973649123439        2.50572559001369        0.62775552907481
H           -3.13346810089680        2.29432206970088       -0.48661806801178
H           -3.39988454195088        3.01909194985287        1.10778725164408
H           -2.91550391858964       -0.10284705620607        3.08478077658967
H           -1.70629993473679        1.16464188065009        2.80271853241351
H           -3.38814858567659        1.60354387608872        3.17667834482514
H           -5.06030011766959        1.40181546978674        0.91363121742786
H           -4.85676713254081        0.04108938048076        1.78703490475300
H            2.32300961885301       -1.87901219893397       -0.40921771914418
H            3.68619540988569       -0.81066969117966        1.96172383497670
H            4.31881658575160       -1.99022373671602        0.78049120958381
H            5.47446852331537       -1.23802813364122       -1.22466741130680
H            6.61320388664143        0.60608936225981       -2.43876567689497
H            4.78202498406244        3.46219099018748        0.17738635896088
H            3.63963266084165        1.61597299908899        1.39310515034874
H            0.27026735900621       -2.94061865178988       -2.15116238130828
H           -3.74321727842464       -2.86794697197723       -0.62771281089343
H           -4.39782265273219       -1.64806720281728        0.49839809538409
H           -2.90510348462780       -2.54014947315272        0.92055414198075
H           -2.86924550404704        0.40050556572097       -2.07524620761972
H           -4.35696170206064        0.08084049239540       -1.12671794502204
H           -3.79541601291949       -1.10660662478289       -2.34015887064137
