42
 energy: -82.954762846057 gnorm: 0.000571913880 xtb: 6.5.1 (579679a)
C            7.12140254674607        0.52531527084771        1.82035642161504
C            5.85806044234657        0.00780139078574        1.25068341802189
N            5.43425492766159       -1.22038759310461        1.24593665074695
N            4.23254566609883       -1.21367709260564        0.60503665534113
C            3.99837472554891        0.01757233542548        0.26161194180570
C            2.80429056665759        0.51256820618521       -0.46827436857159
O            2.61490660536103        1.69472078800252       -0.71087329823553
N            1.98278306310076       -0.50300407895469       -0.79155354870027
C            0.77162001758498       -0.41103019150334       -1.62092150591377
C            0.41110423976777       -1.84148938522687       -2.02707651035766
C            1.03527819394623        0.43548608544686       -2.87284889866740
C           -0.37311260330965        0.18526679897157       -0.81548578850288
N           -1.45168804422123       -0.48707176495641       -0.67389524084971
C           -2.53475975550856        0.05362836315452        0.02034217927674
C           -3.59166216111870       -0.85392990375682        0.08499868647285
O           -3.78698046756016       -1.96474538010411       -0.30434722778480
O           -4.82485539464937       -0.26810737816419        0.93380672064272
C           -5.49299209916188       -1.32558845554855        1.64940560851161
C           -5.71510478860444        0.51290446476223        0.10663624883599
C           -2.49749995764285        1.37433288210844        0.57557415080365
O           -3.43344895476910        1.94386469292101        1.13900744971225
C           -1.17375995689452        2.10609144280523        0.42299460210491
O           -0.96277252307221        3.21147437953099        0.89205963360709
N           -0.21422332819133        1.44796889876341       -0.29455344791583
O            4.99352422215063        0.83591088498134        0.64675587011922
H            6.90808499192854        1.24410964618179        2.61148748347666
H            7.69578475927786        1.03508756105295        1.04720721394711
H            7.70384480740774       -0.29845493729708        2.22487230431903
H            2.27750940085220       -1.43309099097766       -0.53210151947760
H           -0.49034513970847       -1.83185183508684       -2.63743713080281
H            0.22323761399596       -2.44962235176290       -1.14331883033490
H            1.22508824267918       -2.28058516518175       -2.60053022513583
H            1.88885642997354        0.03143791963761       -3.41428447427976
H            1.23873374914509        1.47241973747653       -2.61556713161520
H            0.15734613189014        0.39983183098203       -3.51605606506581
H           -6.28889028662846       -0.87073962398766        2.23464113012219
H           -5.89942530666515       -2.05627768033324        0.94798475956669
H           -4.75361693639603       -1.78738518305603        2.30095711783129
H           -5.11156927980603        1.26785995246741       -0.39249582424573
H           -6.21549230430586       -0.13220045005128       -0.61696733755427
H           -6.43806641786003        0.98782008619985        0.76731511158490
H            0.67363636195641        1.92576482296871       -0.42568998450242
