46
 energy: -87.020658133780 gnorm: 0.000420241463 xtb: 6.5.1 (579679a)
C            5.63514585741181        2.77653681144607       -1.88986661138402
O            4.91066139097083        2.13096765598034       -0.84161129728180
C            3.76986400670373        1.49344819997528       -1.22754834053145
O            3.41077997783766        1.48990019981607       -2.39319128555598
C            3.05846708156183        0.83891285823569       -0.12929044571725
N            1.90544135801994        0.21082899619762       -0.52365111124660
C            1.14945023405483       -0.42163518625064        0.31351468284000
C           -0.07599593461890       -1.10877739624338       -0.27486535059741
C            0.09141419217818       -2.63294693496099       -0.18696924635908
C           -0.21594171564516       -0.70082335873307       -1.75155692487791
N           -1.27637160355414       -0.67109728333053        0.47992293034217
C           -2.52280295514915       -1.17698806032714       -0.01684308330197
O           -2.81050279168372       -2.50740340394723        0.26814996276098
C           -3.73482404419556       -2.73097860756223        1.33071939170470
C           -3.49200093633097       -0.32605767547115       -0.49142047983055
N           -4.76934193398741       -0.60779494370076       -0.81407660863172
N           -5.31300146348602        0.57217636168276       -1.27007871188242
C           -4.39988318575169        1.47689432327390       -1.21378800380081
C           -4.51907580522584        2.90800950775182       -1.59395971802814
O           -3.20755122322238        1.00421136237497       -0.73597060939212
N            1.46423862245631       -0.49184818566146        1.65073617876200
C            0.66278796308660       -1.18765816285696        2.65754015695221
C            2.64057660620471        0.07658268623390        2.16301339391117
O            2.91091331415379       -0.05387827936823        3.36091343638780
C            3.44627790086303        0.78622116171725        1.20343512882560
O            4.57042778075405        1.35251670787840        1.71218345910179
H            6.50270933850666        3.24703500412697       -1.43249884764409
H            5.95591538622753        2.04410857944855       -2.63601624343146
H            5.00985137064701        3.53194242692216       -2.37375104616906
H           -0.01948308412647       -2.98438642334737        0.83628514361021
H            1.07842154725866       -2.91504191613605       -0.55271163187979
H           -0.66119242497623       -3.12756374657704       -0.79936362228249
H            0.65910991463499       -1.01960050759393       -2.31591398060730
H           -1.10377680999941       -1.17048714568070       -2.17409222626110
H           -0.31340900460371        0.38096602475198       -1.83542417983141
H           -1.31652290093261        0.34639463725133        0.44202972248993
H           -3.36684294485488       -2.30646163891812        2.27280155928156
H           -3.84242021285080       -3.81155043072850        1.44009348030578
H           -4.71242624851706       -2.28994994062362        1.09518654282073
H           -4.29263046387867        3.54895283339413       -0.74114283609481
H           -5.53342817866993        3.10819069815435       -1.93233561651449
H           -3.81952784759055        3.15354485892642       -2.39399506044867
H            0.64569723558768       -0.58018811859727        3.56363124533734
H           -0.35420771841378       -1.32944847425252        2.30325485264124
H            1.12156203580057       -2.15056543887516        2.89092770531356
H            5.07345131732817        1.82478736422013        1.02924714623168
