42
 energy: -82.954648700979 gnorm: 0.000671661273 xtb: 6.5.1 (579679a)
C            6.50218967226197        2.09497727913212       -2.08654231633813
C            5.41919426763984        1.62275613312207       -1.19613323876282
N            5.08137172853108        2.09902039905189       -0.03553717371678
N            4.02973989857162        1.35050927739530        0.39952296848188
C            3.79361919043195        0.46521542473516       -0.52186264072539
C            2.72790210087513       -0.56866989555520       -0.49292205903008
O            2.54573849704408       -1.36231043504841       -1.40274210468521
N            2.01556837200711       -0.48964502675256        0.64588660700143
C            0.89521188377223       -1.36294536152593        1.02948697541390
C            0.58233691114102       -1.05575497668978        2.49549201025706
C            1.28630787143369       -2.83760345426942        0.88119647718918
C           -0.32044126271554       -1.02305049675420        0.17736929706594
N           -1.33212542763978       -0.46676531734633        0.72786525895261
C           -2.45806059879912       -0.14176114265757       -0.02950023219501
C           -3.45956372321162        0.40881715753376        0.76985365303907
O           -3.58196007104304        0.66511688469414        1.92882920030813
O           -4.78630702846022        0.72699807606561       -0.07913290922707
C           -5.96327037891978        0.50395948470833        0.72200108438775
C           -4.73507366964681        2.04542090508819       -0.66673437397203
C           -2.51626867410644       -0.37273279480989       -1.44303889396633
O           -3.44024264060878       -0.04168020672877       -2.18751092897587
C           -1.30351108339405       -1.06964216539573       -2.03729421945075
O           -1.21378540858602       -1.37042156515605       -3.21525637888710
N           -0.29089536123749       -1.34168963837714       -1.15984221173649
O            4.64246527260410        0.59122905655203       -1.55743498186595
H            7.13116245625683        1.25708849229024       -2.38515937621312
H            7.10163986965564        2.84072634740747       -1.57010505107013
H            6.07584332244980        2.53579732641073       -2.98830810883112
H            2.27793126693930        0.22648205929736        1.30718484583054
H            1.45374115360379       -1.26582292501850        3.11269282773776
H            0.30177121836743       -0.00985837158814        2.61133910367650
H           -0.24829660087554       -1.67546572313135        2.82933503307644
H            0.45563079065846       -3.46139352020956        1.20774969719985
H            2.15363552959903       -3.04691304058832        1.50502314826483
H            1.52901195657618       -3.08712830945573       -0.14899024635161
H           -5.93762826455632       -0.53527095395353        1.04362958835514
H           -5.96543964529197        1.17460318330435        1.58291798587332
H           -6.82818514039771        0.68808275868694        0.08877706471899
H           -3.81206000338221        2.10638013265654       -1.23981345343993
H           -4.76384100741216        2.80550977065304        0.11600003452500
H           -5.59428267738058        2.13870385508326       -1.32920592207891
H            0.54922543723695       -1.76086868285954       -1.54600903982295
