42
 energy: -82.956445705033 gnorm: 0.000947355616 xtb: 6.5.1 (579679a)
C           -4.48527396077174        3.06658422869849        0.24152037226512
O           -4.12157046349041        1.72804573534986       -0.09606525043267
C           -2.84441266174589        1.38604568018413        0.11011929058900
O           -2.02274182945694        2.16524185369045        0.55296174239451
C           -2.53800137427108       -0.01750944848997       -0.24547783283127
N           -1.21709990128761       -0.35867552953785       -0.07252732624737
C           -0.86489931600575       -1.59681811829966       -0.34574731204961
C            0.62394972285066       -1.86499848944921       -0.17562810890569
C            1.32396370181224       -1.54980230032446       -1.50006510115073
C            0.92996053587371       -3.27964194035729        0.28661817607873
N            1.04252543465242       -0.81857786167652        0.84873190660782
C            0.70406603817941       -1.15943958384947        2.25062766173310
C            2.47493514704957       -0.45036254682003        0.76608568194742
O            3.31248513456510       -1.19434192237985        1.17798354841787
C            2.64058203721639        0.86083088563735        0.17626561292680
N            1.67979762661026        1.63560417272166       -0.25789334611463
N            2.25743168657633        2.75033330775116       -0.72816614170673
C            3.54900364927709        2.60955889518026       -0.56010364684422
C            4.61269514397198        3.56680093292832       -0.91684791340848
O            3.84464455770643        1.43881539301598        0.00417056917666
N           -1.61496782697971       -2.58973222254997       -0.78950525045693
C           -2.93696574496047       -2.33452319785759       -0.99232571760761
O           -3.75498890038914       -3.17167874144989       -1.40105811934806
C           -3.40791758313183       -0.97087463509783       -0.69949636111773
O           -4.72340889241510       -0.77639922830517       -0.90745343083617
H           -3.89621586485118        3.77876950799346       -0.34187362311399
H           -5.54294346191146        3.17354382113790        0.00738112641155
H           -4.31509943245429        3.24755928048453        1.30560380986735
H            1.14706368848783       -0.51260861197073       -1.78206063326934
H            2.39544881204270       -1.72948048312834       -1.43486048129311
H            0.90626052464890       -2.19740596836872       -2.27007800454122
H            0.64928812025652       -3.95997625848867       -0.51713938798134
H            0.34808631252382       -3.54129800012373        1.16791127026180
H            1.99060516526001       -3.39555921019041        0.50127659033416
H            0.40395949861646       -0.01676306318137        0.57404647533834
H            1.35188755915276       -1.96002969238836        2.59540999885017
H           -0.34136071623216       -1.45673778576641        2.28002950358433
H            0.85922352636534       -0.26737894763054        2.85312763932685
H            5.30052505642646        3.10654731823224       -1.62619206181828
H            4.17478977077860        4.45977720416305       -1.35516504812036
H            5.18229369394059        3.83322588627221       -0.02636664160447
H           -5.07760221449747       -1.63667031576467       -1.22093423530920
