47
 energy: -79.482508219381 gnorm: 0.000468480169 xtb: 6.5.1 (579679a)
C           -2.64165388075994        2.10379915084854       -1.81266777459964
C           -3.10847347852655        1.22128428312267       -0.64144202918817
C           -3.00877617488059        2.01070103737076        0.67547717760475
N           -4.48758293207130        0.80695799232006       -0.84662497617657
C           -2.14856144614959        0.04900111949909       -0.53084493662449
N           -0.91460410374220        0.29173886337436       -0.64226019666292
C            0.11034598356202       -0.62381028789206       -0.51892720017572
C            1.46386325187275       -0.01273203123941       -0.79461399204118
O            1.55059949545990        1.15170510999989       -1.15255092425045
N            2.51939353869439       -0.82482316884345       -0.64178520378526
C            3.87533430788388       -0.33878663998053       -0.90119788283485
C            4.48022709425432        0.25356674755990        0.35374935016587
C            5.32132142282942       -0.51088169775587        1.15839579396162
C            5.87069209159014        0.02580893420439        2.31510747663845
C            5.55792468642156        1.33229271777307        2.64403696256009
F            6.08570454934021        1.85959798455772        3.75944177420216
C            4.72198520647333        2.11751284689811        1.86969692232562
C            4.18246100062246        1.56580627274212        0.71701404293963
C           -0.18299002321873       -1.90771013859350       -0.17553503073769
O            0.74249750533363       -2.85529371767269        0.02029721971276
C           -1.55274884191163       -2.34367587033722        0.01379375792555
O           -1.87882443837383       -3.45132144596142        0.33350351155758
N           -2.64123051855123       -1.34049275071647       -0.27003396452759
C           -3.57980695043837       -1.38501061585702        0.89209166415872
C           -3.31172375970099       -1.85855766984000       -1.50616020766839
H           -2.67241304818827        1.53608669720619       -2.74110070070694
H           -3.30648638894304        2.96103932947667       -1.89767613793484
H           -1.62315966746485        2.45101584989345       -1.64178854478568
H           -1.97106629624746        2.27414436603480        0.87658427044369
H           -3.39280834302869        1.41926763388177        1.50433111232417
H           -3.59902871779679        2.92167681886739        0.58986256706660
H           -4.71631979888134        0.82782193976238       -1.83141076065932
H           -5.11423886281367        1.44613254022860       -0.37743176202500
H            2.41692397068950       -1.76501351660018       -0.30276705473274
H            3.81423455917093        0.41752581272751       -1.68963927513875
H            4.46605888951808       -1.18631950659000       -1.25416256551655
H            5.55157153875657       -1.53284532596279        0.88263919171663
H            6.52738244634472       -0.55672756759552        2.94792917869391
H            4.50112888348617        3.13570188309837        2.16299945449655
H            3.52246660964213        2.15890984794021        0.09424621472840
H            0.33963393149635       -3.71071416152197        0.24773922920568
H           -3.86665951110050       -2.42275092549779        1.04508519210759
H           -4.44691868051034       -0.77882499973048        0.64731970213833
H           -3.06172490634581       -0.99744475619286        1.76535303868829
H           -2.62627189820243       -1.74657635761359       -2.34249272324361
H           -3.55113133741240       -2.90627874698538       -1.33926914330077
H           -4.21654595818307       -1.28250088040839       -1.66431581804663
