29
 energy: -54.515669452448 gnorm: 0.000599657379 xtb: 6.5.1 (579679a)
C            4.75530358287292       -0.60914535640325       -1.03381304802713
O            3.61761888052138       -0.48225406171043       -0.16833935796690
C            2.43564835629150       -0.29091962180315       -0.77397291465603
O            2.32222643340132       -0.23085707567674       -1.97514512397297
C            1.29660439063640       -0.15861665096615        0.17628655480732
N            0.09483193527085        0.03613709264202       -0.46310966364450
C           -0.97646937585119        0.17823848564774        0.24150635399727
C           -2.32858189659860        0.34801620786576       -0.41698800495062
C           -2.85141234884319       -1.04914867571127       -0.77999786834695
C           -2.19522858171252        1.22013438011027       -1.67190600727130
N           -3.23139379555244        0.94613059199409        0.56193049003966
N           -0.96327990059007        0.12607893731655        1.59933938812541
C            0.16627576618589       -0.06182815555424        2.36094467788048
O            0.11482070858792       -0.09072264404397        3.58028875935596
C            1.37900678677223       -0.21565094719374        1.54578331287025
O            2.49883885310644       -0.39867393250421        2.25919018504021
H            4.60710779651358       -1.44289324249594       -1.72369648638903
H            4.89368395399341        0.31351815126751       -1.60150291518155
H            5.61434180799169       -0.79347836839271       -0.39357930341996
H           -3.81726159438207       -0.96468614304509       -1.27528728867091
H           -2.15192610337107       -1.54788880844408       -1.45020089857988
H           -2.96885500873843       -1.64853389647018        0.12211805699712
H           -3.16274705817507        1.31292310912199       -2.16142607832387
H           -1.84022619168216        2.21348439030223       -1.40084901826101
H           -1.48317466954816        0.76818086362652       -2.36247027598551
H           -3.07472273998217        1.94399046193033        0.60629650041937
H           -4.18825751878337        0.80127663805172        0.27479189723233
H           -1.85050431676334        0.26825274763673        2.07114980036677
H            3.28773284842829       -0.49106347709807        1.69801627651566
