42
 energy: -83.004751396999 gnorm: 0.000190984209 xtb: 6.5.1 (579679a)
C           -3.16494276586533        3.28127885451628       -1.62653950465152
O           -2.93768445830092        2.37888199864564       -0.53138880826060
C           -2.37370238429473        1.22473740269879       -0.81075616087825
C           -2.19767393951085        1.18664963437503        1.74044017017271
O           -2.05541251557605        0.84974140851589       -1.90740345026837
C           -2.18450302188799        0.34830981840171        0.46322757700559
N           -0.89727554849705       -0.28824256536449        0.30728088863266
C           -0.78471618772990       -1.39789235584126       -0.29537979815495
C            0.58658132041046       -2.00515258677967       -0.52012962287184
C            0.70041893331853       -3.31674031945441        0.27006803951459
C            0.82532145243688       -2.23036001552166       -2.01993699651379
N            1.55378275511778       -1.03437550042828       -0.01636479287941
C            2.88450763425240       -1.22637969838013       -0.02779071798884
O            3.45343554193432       -2.23164081893712       -0.42456301581614
C            3.63728535646764       -0.05944951236382        0.50112021666560
N            4.92031416290593        0.04428070341101        0.65708063739897
N            5.15793097704400        1.29382129514910        1.14685785861347
C            4.00545404533049        1.87679605383000        1.25789145057951
C            3.72913863002288        3.24787328440757        1.73859563878466
O            3.00032084403538        1.07468027636411        0.86775202632142
N           -1.86429958430217       -2.13654426489474       -0.76020163088296
C           -3.16524689340311       -1.85634312129683       -0.46530028072408
O           -4.08305296246362       -2.54526782205851       -0.84715172732328
C           -3.35806973734724       -0.61311023136212        0.41162282046058
O           -4.39646928737150       -0.40495965881851        0.98121693827856
H           -3.80281558050493        2.80480964498690       -2.37338354010627
H           -2.21064933764465        3.55591420331564       -2.07909888244322
H           -3.65344183873553        4.15616749603608       -1.20424913074199
H           -1.97070626261597        0.54653652037625        2.59058620434395
H           -1.44697837436627        1.96967632008057        1.67320592716582
H           -3.17945816860311        1.63482165158719        1.87986179803122
H           -0.07001493348447       -4.01222473843047       -0.05583519065433
H            1.67654031211156       -3.76718946838325        0.09873162054417
H            0.57702573694802       -3.12067833026716        1.33390365066672
H            1.83265186904243       -2.61263962405395       -2.17524145455644
H            0.71007403031408       -1.29128078540321       -2.55899316322501
H            0.11515765148211       -2.95634491712288       -2.40912681771057
H            1.17279216698345       -0.16697992305138        0.34003210094464
H            4.66672618877103        3.75871484480780        1.94447855411167
H            3.12803251196855        3.21057819773460        2.64687173047920
H            3.16799643450134        3.79983509416343        0.98535698149413
H           -1.70437577289427       -2.97031044520336       -1.30554014355308
