43
 energy: -83.855470121393 gnorm: 0.000389288047 xtb: 6.5.1 (579679a)
C           -5.67126881871656        1.35994895972891       -1.53338843171518
O           -4.31940050160622        1.00024560906054       -1.32515331669972
C           -4.05840602136238        0.37359232775926       -0.10408551356352
O           -5.01293201866026        0.22036216463422        0.71621732925834
C           -2.74739750442200       -0.02203057780295        0.10777013932688
C           -2.37456085725754       -0.73379874892670        1.33324681568242
O           -3.36705323380603       -1.03952765934588        2.22597565871895
C           -1.09428936248604       -1.09571675815891        1.52286192509532
O           -0.52601980965210       -1.80372343082356        2.56916130100268
C           -1.12270027418323       -1.68593919998456        3.85030839627623
N           -0.09912493854109       -0.70095878616184        0.57788161785065
C           -0.56645397609844       -0.21575482618413       -0.65422679421262
C            0.48227511160297       -0.10967256942961       -1.74909074111156
C            0.66529600446228       -1.48323433807047       -2.40511706552767
C            0.06210306669541        0.92719022269925       -2.79583137646566
N            1.77164654900618        0.26295496898941       -1.15777754125022
C            1.92103221878818        1.34398289464058       -0.35361002213785
O            1.07474515505007        2.21919149411132       -0.19124800185219
C            3.23159607588737        1.38630457475187        0.31866774296208
N            3.66612387159669        2.28364233180611        1.16151171377983
N            4.91609163548074        1.88813899354873        1.54624418141606
C            5.16955673844967        0.78285287610078        0.92234468621255
C            6.39518141149891       -0.04300916363033        1.00380418339745
O            4.15055531724082        0.40338802193568        0.12827843285294
N           -1.76502213002968        0.14939947184353       -0.87877145131779
H           -6.32570551044267        0.47985198995808       -1.50742210634013
H           -5.73388932999791        1.82536055546317       -2.51861446308963
H           -6.01785013400116        2.07201148283876       -0.77395875442080
H           -4.20496077533878       -0.62225899881181        1.83847843404080
H           -0.40401154125987       -2.08659171528700        4.56880863362784
H           -2.05171049615582       -2.26462935800070        3.91576675536892
H           -1.33718745110734       -0.63969229519913        4.10135467469070
H            0.68606284373979       -1.33263460756387        0.52938601560383
H            1.42522250966302       -1.43364366954199       -3.18314147743432
H            0.97077335722393       -2.21937646924518       -1.66309080817873
H           -0.27514154069747       -1.80467292201690       -2.85062599780146
H           -0.06099892831930        1.90572216433948       -2.33222514501936
H           -0.88823961706661        0.62643405645033       -3.23582674548695
H            0.81606965053318        0.99338855970227       -3.57792525841454
H            2.51942484943296       -0.40545803094130       -1.20763408065532
H            7.09852167271058        0.41314295924960        1.69579583111990
H            6.85519452019130       -0.12723273947657        0.01990108920642
H            6.14685121196028       -1.04754881501859        1.34500153521189
