47
 energy: -80.203235941074 gnorm: 0.000377437861 xtb: 6.5.1 (579679a)
C           -3.41354503349471        0.21129311961653       -2.03531073470729
N           -2.34920931242792       -0.39304100554949       -1.25510536509523
C           -1.78382900868948        0.15479171967103       -0.16293427513876
C           -2.36251690008529        1.38374184797508        0.56216578441862
C           -3.65223325335684        0.97149253154067        1.29924239470090
C           -2.61108805170611        2.60732914257925       -0.33213741287975
N           -1.37146509974941        1.81127411974455        1.55449368519584
N           -0.71199197884211       -0.33436628669092        0.39222467654581
C           -0.04956984893715       -1.40817818387432       -0.22430487673170
C            1.30955480007058       -1.66498328438857        0.24710381855911
O            2.05854271364949       -2.53234423474428       -0.23855629598248
N            1.69694436207557       -0.90109229336718        1.29976289788545
C            3.06280300981340       -0.91518884336222        1.79017927597858
C            3.92757460733414        0.03692456820130        0.98909666117833
C            4.45936066111325       -0.36640871730348       -0.23469094072569
C            5.22733191300796        0.50548163085926       -0.99301001425717
C            5.44724944289570        1.78052024133599       -0.50341521508541
F            6.19187224454024        2.63236023547144       -1.23262058569343
C            4.93672777486758        2.21475306865511        0.70565312811790
C            4.17010756477075        1.32810232433948        1.45060311564513
C           -0.62513716767391       -2.14915347323069       -1.20437078981393
O            0.01128667645295       -3.16926719809678       -1.81364850446873
C           -2.10528325056451       -1.94029590551581       -1.62523927971426
C           -2.97572895086746       -2.71029532345133       -0.56297090391785
O           -2.40366286518846       -2.18856379913190       -2.84869789575649
H           -4.29973756914758        0.42723230219058       -1.43415724552048
H           -3.69663535179552       -0.49792477044443       -2.82134061278234
H           -3.07277107987340        1.12947479730526       -2.51981424917961
H           -3.43488970485356        0.15871156481102        1.99187478604895
H           -4.03670848488668        1.81789826972051        1.86710176481399
H           -4.42404519333133        0.64299686561504        0.60519227317356
H           -2.66955458884713        3.49525718168298        0.29786485313993
H           -1.78777497846056        2.74237610881736       -1.03430302260524
H           -3.54711650406136        2.53331229203452       -0.88010847439429
H           -1.79295276478692        2.50263608268939        2.15917088203693
H           -1.11898725391537        1.01515017127072        2.13232905294058
H            1.09904471984652       -0.12818643438544        1.56464075859164
H            3.05338529065567       -0.62722560418093        2.84428382967920
H            3.44575100157341       -1.93754190639257        1.70208709358335
H            4.27173489936139       -1.37199285338767       -0.59570373626259
H            5.65298740634131        0.20608000985556       -1.94206442128968
H            5.13715593774464        3.21860569733386        1.05578175412089
H            3.76499876984088        1.64711641160449        2.40386679925836
H            0.91986996770564       -3.24519135374865       -1.43491791349551
H           -2.72954036201837       -2.40774000235902        0.45269539255380
H           -2.79105183189828       -3.77738963833117       -0.67990792656490
H           -4.02726037420501       -2.50854019298124       -0.75808398610755
