42
 energy: -82.993640668090 gnorm: 0.000997589525 xtb: 6.5.1 (579679a)
C           -3.60005970925255       -0.62975196732416       -1.82666450235252
O           -4.34949144589630        0.37994931256086       -1.15368868996494
C           -3.93850330703770        1.07596651990810       -0.10824688036600
O           -4.82167555284416        1.95483812780270        0.31584583296291
C           -6.07775281521225        2.07101728784472       -0.35570741667019
C           -2.71485964561428        0.97026963605563        0.56138168969595
N           -1.80669754522389        0.02368134857048        0.09296113314706
C           -0.67604616613062       -0.13264302512609        0.66921257089550
C            0.30736891844964       -1.18489950538873        0.20097707027573
C           -0.03768786141537       -1.67194977025732       -1.20773269398894
C            0.28187301693797       -2.34761757710668        1.20465210416643
N            1.63223437845205       -0.55258586420579        0.19193875731041
C            2.77051249702183       -1.21790213030875       -0.11007714251034
O            2.87000312129309       -2.41809812274207       -0.28412481804618
C            3.92036080526234       -0.27969599077922       -0.18209340744877
N            3.87208198942442        1.00809810708195       -0.01723385775142
N            5.14445593827865        1.47141250486201       -0.16891898218046
C            5.88765138138910        0.43569076995651       -0.41758932383248
C            7.34685947401711        0.40565826482063       -0.66002290392515
O            5.17237164815428       -0.69856549928875       -0.43966348352665
N           -0.29370994322555        0.59999773352438        1.77176032210089
C           -1.05840067094898        1.58069730678207        2.34638446280536
O           -0.65669210378950        2.20214208573057        3.31256698695708
C           -2.41306219837224        1.81391034210348        1.69497325982032
O           -3.15140216289520        2.67637440673533        2.15674532784168
H           -3.36597095510969       -1.45180737753663       -1.14850606398214
H           -4.24189680047514       -0.98237861582300       -2.63474682490710
H           -2.67619976691571       -0.21634588920283       -2.23445864289076
H           -6.61703786112750        1.12234629443802       -0.31743678213866
H           -5.92425559049781        2.36109829115793       -1.39704448577272
H           -6.63309374231299        2.84307539509962        0.17427572340583
H           -0.04572943540503       -0.83398690725852       -1.90292576088672
H           -1.02141203087182       -2.13717502331329       -1.19983290767319
H            0.69754593818912       -2.40425331143597       -1.53644983668074
H            0.61018980709123       -2.00505466484962        2.18433250118004
H           -0.73538470601635       -2.72792666683321        1.28372687921303
H            0.93495790886737       -3.15102657465273        0.87024586174241
H            1.67177531693103        0.45606989920648        0.17481406545208
H            7.54916839089222        0.02890008833557       -1.66318681877195
H            7.75654098852439        1.40820023186669       -0.55830400857594
H            7.82828054732372       -0.26268579134945        0.05458955673983
H            0.60278695009051        0.41695632033583        2.19648312913705
