42
 energy: -82.973019335312 gnorm: 0.000200164953 xtb: 6.5.1 (579679a)
C           -5.38570866507880        2.09083903308512        0.35997426154233
O           -4.04954336509853        2.15217530168259       -0.15447029845972
C           -3.49608546638920        1.01872580902532       -0.66690267981061
C           -3.00174473424943        1.18114042718355       -2.08404583736561
O           -4.01708968107844       -0.19695670347612       -0.28918620222339
C           -2.73459168635948        0.05360222221544        0.26049090454232
N           -1.69635041709610       -0.66789730186340       -0.36676918142215
C           -0.58845750335374       -0.85218141498695        0.22989234497554
C            0.50746024336692       -1.65747518796779       -0.43499060922302
C            0.28840787042936       -1.71419731684083       -1.94897398778601
C            0.48006876557951       -3.06312209384732        0.18664368414434
N            1.78318177785439       -0.99623823206245       -0.13973333221349
C            2.97751856573186       -1.51202925447588       -0.51668845184103
O            3.14699357985193       -2.60624653790476       -1.02401643416387
C            4.10831481039149       -0.59957804668612       -0.21699665033126
N            5.37035815966237       -0.80565647781153       -0.43151833532553
N            6.03046698210971        0.30151051616674        0.00843599692299
C            5.13123805220401        1.11666556097011        0.46495073952054
C            5.33780209057947        2.45470928653621        1.06005639802250
O            3.89310619125916        0.60731660979193        0.35126150163186
N           -0.34107311302172       -0.42542277057967        1.52170562038113
C           -1.26522201487739        0.17382461901851        2.33350154773119
O           -1.00351762360164        0.50394771392098        3.46807571727191
C           -2.65091569060393        0.35385357151128        1.70849414868330
O           -3.57497311510387        0.75464345430389        2.37753958845883
H           -5.55256080056463        3.03194897075156        0.88247071837273
H           -6.09994391013152        1.99004962520064       -0.46299293112119
H           -5.50406362393992        1.25463872406990        1.05253772035165
H           -2.32594534365175        2.03146013882788       -2.13772142965836
H           -2.49025701860901        0.27930396798205       -2.40888064773982
H           -3.85894241610335        1.36938177201590       -2.72867463934866
H            1.06665716857246       -2.31730027914616       -2.41299073788747
H            0.31631337055909       -0.70882888933280       -2.36515395908860
H           -0.68329850024203       -2.15741898635044       -2.15991569400757
H            1.19441633536894       -3.71242882883234       -0.31522090540930
H            0.72936824892905       -3.00651931807987        1.24460574235913
H           -0.51875939589405       -3.48353731485850        0.07779929495442
H            1.75743898468149       -0.02496991205845        0.12218672123639
H            4.76296518011091        3.19931053132937        0.51025524522079
H            6.39426762356939        2.71047984833237        1.02926630100603
H            4.99079370291309        2.45819123761726        2.09336866249663
H            0.57190538131139       -0.57971307437317        1.92233108460236
