43
 energy: -76.174900778298 gnorm: 0.000461060321 xtb: 6.5.1 (579679a)
C           -4.25146889046685       -0.50965419903537        1.41602305694443
N           -2.87716498878847       -0.58857599146558        0.92029390037795
C           -2.40873097804171        0.08720061870863       -0.18222533062031
C           -3.26149101097227        1.04259518131207       -1.02939489986760
C           -4.04222188398947        2.07108696267971       -0.20014450732130
C           -4.18824104172243        0.24047356553573       -1.95546873910300
N           -2.36045127900074        1.80367926671712       -1.88867088120594
N           -1.18932554637931       -0.05958385691461       -0.59423770708539
C           -0.29031030102580       -0.86518946877858        0.04529068542212
C            1.05646047778468       -0.91866529180452       -0.61633938295279
O            1.24589417804075       -0.42104242290135       -1.72026279197152
N            2.02695218564046       -1.55656442087625        0.06661893081084
C            3.38074479900155       -1.64508391489797       -0.46994009129183
C            4.23992823009034       -0.49859197810969        0.02118006751471
C            5.25650583073867       -0.72530416534300        0.94491884181149
C            6.04692597796348        0.32233281539186        1.39957361705202
C            5.79274717517180        1.59169901520546        0.91494960410154
F            6.55242683787773        2.61161534339250        1.34879269769742
C            4.78951372240198        1.85378030688367       -0.00130660165312
C            4.01263248627321        0.79481202732172       -0.44726306918774
C           -0.68269509070646       -1.52644028311770        1.17152582872241
O            0.11007431930358       -2.34059608363274        1.89955583241505
C           -2.03981400854283       -1.39951778335777        1.66492753194260
O           -2.41342868164010       -1.99221415878653        2.67613159316912
H           -4.44211869040566       -1.39994487266427        2.01475574210326
H           -4.36912812560330        0.37223526329272        2.04451481646751
H           -4.95302713994622       -0.48000040887554        0.58936164644860
H           -4.26824155552606        2.92532231062337       -0.83844530910662
H           -3.44511217917121        2.41653982579835        0.64253661357103
H           -4.98290990783973        1.67143449844053        0.16924979437413
H           -3.60384196695341       -0.46976946964206       -2.53969688822823
H           -4.68753825473794        0.92926021900490       -2.63615616035901
H           -4.94361168911359       -0.30656516590436       -1.39611703541446
H           -1.78217870266726        1.15456775549220       -2.41534173025229
H           -1.73846629569250        2.35070342251956       -1.30505232305025
H            1.87680828101535       -1.89587616056794        1.00154512207400
H            3.80703391521396       -2.60168882563972       -0.15929313493770
H            3.31050409460851       -1.62172808342473       -1.56263481570039
H            5.43830423139195       -1.72778531718319        1.31388484779748
H            6.84135310786062        0.15800903805876        2.11553257506120
H            4.62524350603723        2.86275209760567       -0.35681938346545
H            3.22361741458635        0.97441379046144       -1.16864672189724
H           -0.41215256207115       -2.68413000151990        2.65017615878648
