46
 energy: -87.064613215344 gnorm: 0.000890113180 xtb: 6.5.1 (579679a)
C           -5.68107125738260        2.54717739856160       -0.93341891739282
O           -4.60457117576052        1.66276500215921       -0.61351761689839
C           -4.71792632101946        0.41355732555292       -1.05861581180753
O           -5.67853750418804        0.03034181157304       -1.71027681170551
C           -3.59343745821744       -0.46546082571890       -0.69080062173443
N           -2.57248023589060        0.07467214488958        0.03544510145692
C           -1.56310239197174       -0.64849120553743        0.40854446844017
C           -0.51398077185978        0.05942094779100        1.26515993456539
C           -0.64904785083259       -0.45198337662480        2.70965288672560
C           -0.78605889848313        1.57375250520695        1.23623045467427
N            0.80583090706434       -0.22497832183205        0.70694320728749
C            1.96112341379023        0.38419396527683        1.26631580459567
O            1.98313341529650        0.79419785097223        2.43866565831908
C            3.03144947063962        0.38408740744953        0.34437745740981
N            2.95421892648374       -0.03922129358727       -0.91366313029065
N            4.09530906335831        0.07815445069570       -1.51785154851166
C            5.05325403987625        0.64095793741639       -0.55199894319221
C            5.59514754503449        1.97897778058861       -1.07774701081931
C            6.19604850481258       -0.35952785113627       -0.31371373139064
O            4.31823247138176        0.84212074817129        0.64784661395668
N           -1.48334214444862       -1.98038528828727        0.08916237832971
C           -0.40417755294493       -2.87986641980211        0.50933557354883
C           -2.47138207935482       -2.63722978633655       -0.64293828196815
O           -2.36917434775169       -3.83547110583738       -0.88620806328697
C           -3.58162220139025       -1.79222642784467       -1.05454902450683
O           -4.55042282508459       -2.38746188465819       -1.76425324322518
H           -5.77849750160676        2.64427334249802       -2.01727440634379
H           -5.43913347892094        3.50980394059920       -0.48762247142667
H           -6.61703089760439        2.16278510562035       -0.52156314690617
H           -0.05146169449255        0.16148715068500        3.38124746882947
H           -0.31764328948628       -1.48430834358933        2.79604688438211
H           -1.69322574658422       -0.39200567235195        3.01437813155476
H           -0.04165379870100        2.08887730015152        1.84132217246586
H           -1.77569032605435        1.78348023288078        1.63804016286342
H           -0.73763376908851        1.94550425962442        0.21365268063486
H            0.81503017854681       -0.19209222656127       -0.30787483468464
H            6.29108676204404        2.41125927946772       -0.36092956827426
H            4.76686704135319        2.66865877158783       -1.23113450919354
H            6.10558950838223        1.81925879490517       -2.02528514087865
H            6.72495814723216       -0.54133013941265       -1.24693926011788
H            5.78259824058808       -1.29859531495108        0.05054693480983
H            6.89151403184717        0.03402219307189        0.42554538161265
H           -0.07254903947458       -3.44774150656143       -0.36080032909423
H            0.42996260438113       -2.31906747355389        0.91720614057495
H           -0.79505111678845       -3.57440105337009        1.25357459074394
H           -5.26144959672314       -1.74194312983750       -1.97543066416134
