21
 energy: -30.771047594124 gnorm: 0.000972608791 xtb: 6.5.1 (579679a)
C           -0.71958294950079       -2.02998188446469       -0.12999947480625
C           -0.38404882786104       -0.66390602638044        0.55393060213431
C           -1.65522976856346        0.01630255820980        0.88548456209120
C           -1.98716206098066        1.17516661572852        0.26984212747414
F           -3.15337425120636        1.75694813412293        0.52849954753242
C           -1.13323427171121        1.81567458464857       -0.65236561985002
C            0.11684285079046        1.29043843605723       -0.91040718820068
C            0.53817100651683        0.10066279192921       -0.31908345154544
C            1.94896897203809       -0.34228487618609       -0.46566954333860
N            2.55122088218843        0.49513229193779        0.56531463163697
H            0.19845543299931       -2.58782875371246       -0.29555849679277
H           -1.37531533114264       -2.59908725636721        0.52512823931792
H           -1.21607519662561       -1.85021769506607       -1.08070053036034
H            0.12563591715357       -0.94083556889085        1.48624197046093
H           -2.32159891247548       -0.46124270257752        1.59293723007966
H           -1.46926032679508        2.72438940052970       -1.13800655142946
H            0.78311098139829        1.80972949952318       -1.58945075075620
H            2.38247834876930       -0.09471476171028       -1.43444307557871
H            2.11242490860280       -1.39171877317277       -0.22636115843452
H            2.47638035261792        1.47796673284926        0.35256498207721
H            2.18119124378776        0.29940625299201        1.48210194828831
