46
 energy: -86.305388237689 gnorm: 0.000587635959 xtb: 6.5.1 (579679a)
C           -5.10430292341522       -2.77463638676810        0.86271435376598
O           -3.95345780132281       -1.92200877721690        0.71510479688035
C           -4.14332262544752       -0.63805123859503        0.86574228495989
O           -5.19502284749915       -0.09723170372511        1.10453026142853
C           -2.86509154487271        0.16360343696221        0.71655667632722
N           -1.86450486999938       -0.36793108929107        0.10941362350481
C           -0.68419000571550        0.29744300699927       -0.06034054395981
C            0.33277548210578       -0.47888782216032       -0.85775216547980
C            0.02166406008377       -1.98263574130325       -0.82620626944428
C            0.21648967513579        0.05134334077335       -2.30344881725169
N            1.66073585473099       -0.25750870644221       -0.29968475519917
C            2.79719598245253       -0.70642966342736       -0.91699721226303
O            2.85977613655450       -1.12629273685514       -2.05142839105451
C            3.95193668158596       -0.57437425640578       -0.00378257528269
N            3.90472370164426       -0.16300086008349        1.22945812622546
N            5.17618124775768       -0.20932810776743        1.70619015023680
C            5.92209549039709       -0.64850387861361        0.73422973068574
C            7.38326604263451       -0.87631227315985        0.74765417126033
O            5.20373898455155       -0.89694516565916       -0.36947388262935
N           -0.51353963310187        1.51758028704623        0.40382210821372
C            0.70978869977841        2.31463431308890        0.27326512767100
C           -1.49071717760324        2.15466037774784        1.27978804018813
O           -1.15335000067767        3.08868941944965        1.93233922834634
C           -2.88536335398092        1.59847827280211        1.14540904199203
C           -3.49217303525218        2.36283627202709       -0.08099572882643
O           -3.59956813047847        1.86423345965643        2.29840006442817
H           -5.85901210862012       -2.49890026425899        0.12470448723323
H           -5.51343822585254       -2.65956261010814        1.86774954761241
H           -4.75303213826238       -3.79045977055501        0.70011669638200
H            0.01920158578016       -2.34367132093027        0.20015311519824
H            0.78846047112412       -2.50858587689775       -1.39232429799995
H           -0.94976521838519       -2.17438056023149       -1.27593556466524
H            0.79517687162311       -0.58879479353347       -2.96622701125231
H            0.58884672092922        1.07028834381560       -2.37367814337022
H           -0.82763919044016        0.02963898576582       -2.61051262336604
H            1.71960334850774       -0.15106167263668        0.70292983113642
H            7.59797005385864       -1.92612306252783        0.54627341075762
H            7.78793816881640       -0.60011208870185        1.71832589392121
H            7.85822498746414       -0.28009013298519       -0.03152007725687
H            1.29773781807198        2.20730992450039        1.18408669958505
H            0.41087228202968        3.35512852498173        0.15759743792181
H            1.27834480483341        1.98498582535743       -0.58696580459899
H           -2.90702910939707        2.18659430992859       -0.97933486350777
H           -4.51249236801631        2.01510610197620       -0.22574065854630
H           -3.49704557280087        3.42352781098240        0.16286041999627
H           -4.51868727131030        1.55573854698115        2.22239306009062
