42
 energy: -83.003533166329 gnorm: 0.000476037995 xtb: 6.5.1 (579679a)
C           -6.21127175294274        1.38449590030820        0.64111185234683
O           -5.15145499372801        0.48533217538632        0.28618160605098
C           -3.91738599396679        0.88010257925268        0.54727691147486
O           -3.62626667685285        1.93866963555201        1.04313251512387
C           -2.86779668505084       -0.14277454329327        0.13714785677812
N           -1.67715360419933       -0.01239007180182        0.88983067636875
C           -0.62179622350179       -0.60143032679531        0.48874829471887
C            0.61798795832166       -0.61667396259321        1.35813499387359
C            0.77834228262818       -2.04181637577035        1.90763734858971
C            0.49211375500336        0.40555868970103        2.49080525085368
N            1.75518765720887       -0.26854944953027        0.49903676876869
C            3.03938366372916       -0.28141673575888        0.93163865665929
O            3.42620521523416       -0.71509888211360        1.99969867948286
C            3.93987597959201        0.29709779737550       -0.09791622078382
N            3.57045988253852        0.83199447751457       -1.22318866739944
N            4.70523851926164        1.24232127539086       -1.85401283606034
C            5.69577614169165        0.93250173755229       -1.07240670371604
C            7.13706061011092        1.16971152844413       -1.30614948462690
O            5.27587373706973        0.33528054828101        0.05232835744086
N           -0.51897262797260       -1.25078813893052       -0.72503498394002
C           -1.46001346896535       -1.14244380065340       -1.72121981431693
O           -1.18906931150550       -1.36283265654887       -2.88189558858703
C           -2.81951328854327       -0.71872010168108       -1.24953292930594
C           -3.80450447787509       -0.37504471143755       -2.34069613879468
O           -3.29271555958569       -1.44195134595867       -0.13975154541264
H           -7.12384747996269        0.96471426199439        0.22473047032697
H           -6.28550059908396        1.45600129218208        1.72791472254156
H           -6.01787262476954        2.37358080129043        0.22152853357572
H           -0.13799335779552       -2.33406167119181        2.41862689660566
H            1.60532492161385       -2.08439981105210        2.61295957920684
H            0.96868541942652       -2.73724430885926        1.09241569647794
H            1.38412577892417        0.37663526847114        3.11363066664906
H            0.37390860309422        1.40586466148122        2.07740236110339
H           -0.37933955975489        0.16900823692472        3.09909192480828
H            1.56579861967517        0.25356770406359       -0.34367258963587
H            7.53232554228884        1.84192797084934       -0.54448748958261
H            7.68437690771639        0.22963219057758       -1.24280239520232
H            7.27950908491423        1.61126582248222       -2.28934844263037
H            0.39262375432801       -1.56817523281566       -1.02029380369048
H           -3.54110377553040        0.58005293115238       -2.79180908892693
H           -3.76383732342606       -1.14575968674259       -3.11036195602929
H           -4.81277564935381       -0.32374767269701       -1.93982594118307
