46
 energy: -86.307081210206 gnorm: 0.000720257619 xtb: 6.5.1 (579679a)
C           -6.44957601511473        0.13601648584583        1.57605455961038
O           -5.32269702997755        0.29039582581704        0.69546914002132
C           -4.12758031758733        0.26963640486883        1.24318077608524
O           -3.89558048447701        0.14242860897721        2.41612497754410
C           -3.01326065702135        0.42112947912159        0.22133743251879
C           -3.15056169435077        0.24341894922515       -1.16919253703529
O           -4.25871983756206       -0.05379719834488       -1.75596553646624
C           -1.98369494471720        0.43742980476057       -2.05936761047254
O           -2.12994973149707        0.34643022637852       -3.26562157532495
N           -0.81765526638069        0.74579746803380       -1.43391866249983
C            0.31517158694073        1.05880492063775       -2.30062322621266
C           -0.67504949715249        0.78437990883509       -0.00566534472702
C            0.13024120477203        2.00872615672108        0.43677327982609
C            0.09801668174192       -0.62850657214293        0.50139200738284
C           -0.09255201422846       -0.76850098081643        2.00716458312091
C           -0.54411184383912       -1.79080951417056       -0.24324759024856
N            1.46128231495187       -0.55241231388695        0.11677388764053
C            2.49454111664659        0.00044009655655        0.84570032961561
O            2.36908673269557        0.58688318996512        1.89578528049809
C            3.77059146489705       -0.21917350537827        0.14684995537470
N            3.92225217708506       -0.83819383645949       -0.98960583754604
N            5.24462210804503       -0.80925313592615       -1.27720625199442
C            5.82635994828281       -0.17079839452319       -0.29992312924718
C            7.26411072770794        0.13603213593151       -0.15137587216753
O            4.94459689066591        0.22315997074124        0.62668038103707
N           -1.84379891079887        0.71747675034745        0.72374428742429
H           -6.43069674940459       -0.86040143537913        2.02137525075231
H           -6.41058627608995        0.89204968604379        2.36256609223894
H           -7.33685899297947        0.26481926116286        0.96021367895363
H           -4.12518512911468       -0.12985898756069       -2.72921521862975
H            1.23761538152281        0.72197376649532       -1.83865313592064
H            0.15917270041333        0.55230007526033       -3.25131275860696
H            0.35714529216709        2.13641325311885       -2.45940613290804
H            1.12998097800714        1.99494181335106        0.01496505335975
H           -0.39467685556255        2.89706609071583        0.08914814535436
H            0.19614954808109        2.03374709500980        1.52198359183750
H            0.11777279565942        0.15429724000285        2.54107763393604
H           -1.12329786192353       -1.05697998661373        2.20880882510107
H            0.58115102621017       -1.54319341857187        2.37100643568772
H           -0.31311841829066       -1.75572143956202       -1.30563851293038
H           -1.62423940798151       -1.78881384276627       -0.11276399972464
H           -0.15049657572247       -2.71932916258851        0.16936749418246
H            1.73005612780653       -1.02313300484275       -0.73713829922824
H            7.61944196126592       -0.20872218886615        0.81959666083634
H            7.82724706145852       -0.34845530353437       -0.94550924482200
H            7.41734068474605        1.21457055800811       -0.20179126322976
