42
 energy: -83.625285689995 gnorm: 0.000399624224 xtb: 6.5.1 (579679a)
C           -5.63495795230577        2.13445003378150       -0.29068720790390
O           -4.41902580751758        1.41248978464246       -0.27639527696319
C           -4.44491487308435        0.21978983039661        0.42735294015235
O           -5.48788623941780       -0.12066150368090        0.98142570742958
C           -3.17014568116057       -0.47659497744417        0.39481049010125
C           -3.02914396670771       -1.72950821937118        1.06243652355013
O           -3.91060343865552       -2.29149146481522        1.77602531839319
C           -1.71984344543045       -2.42448103915273        0.84481867482154
O           -1.47124459055570       -3.58203018240833        1.21872959415474
N           -0.77014129856251       -1.73161388326739        0.15631521829722
C           -0.88884324295857       -0.36736647687930       -0.33597108541270
C           -0.31819705966849       -0.35109834276547       -1.76866680864483
C           -0.00487398115686        0.59347642565006        0.63040412608700
C           -0.48310539492761        0.40237569462937        2.07684495114388
C           -0.22614491192954        2.05561149923230        0.23715657170274
N            1.38987715045659        0.21574388047295        0.60239972302498
C            2.35219880922798        0.56277206334971       -0.31049358791877
O            2.20804230526561        1.40413402516119       -1.21840908868164
C            3.57614059271178       -0.17179379805123       -0.07166679671674
N            3.77459770653956       -1.08249306967828        0.87011047604238
N            5.06755415223577       -1.51220285555454        0.73051337578840
C            5.57910281454056       -0.85903008042565       -0.26075792749961
C            6.95762036763771       -0.97463129471245       -0.79548108171901
O            4.70776290577830        0.00749367247528       -0.82259287551746
N           -2.20650661616920        0.12706799968853       -0.36250588707914
H           -5.93647072063172        2.42260177216913        0.72330504767213
H           -5.47281248434434        3.03208926707111       -0.88801121916270
H           -6.44231620551493        1.54208328005809       -0.73733390063642
H            0.10937939761934       -2.19769698547287        0.00591100407549
H           -0.94878536358576       -0.97949553201587       -2.39731894177510
H            0.69626960724533       -0.74152703074033       -1.79177074369824
H           -0.32467982268128        0.65928919980975       -2.17032122072127
H           -0.32704221201716       -0.62506654253339        2.40575956659387
H            0.07119996179251        1.06475731486605        2.74120263606793
H           -1.54411173352654        0.64007200493208        2.15351792776443
H            0.10447162684501        2.26520235429273       -0.77718679841049
H            0.31212137602419        2.71450845848866        0.91860473188963
H           -1.29394580360095        2.27174566934459        0.30197139937688
H            1.65560389515622       -0.52627951514969        1.23681468871574
H            7.48801882836257       -1.76186501375703       -0.26497672615178
H            6.93244516940372       -1.20756667134874       -1.86010575323643
H            7.49333617927075       -0.03325975128967       -0.66948576499652
