43
 energy: -83.883725779563 gnorm: 0.000770629955 xtb: 6.5.1 (579679a)
C           -3.16588835841317        2.88751413330509       -2.83285316348553
O           -2.78793169825638        1.88060036639409       -1.89261815887661
C           -3.35306220168303        0.68512502409476       -2.05050886003825
O           -4.15503747382736        0.44883316261709       -2.94350550003017
C           -2.92886839644353       -0.31924300868145       -1.05907941497397
N           -2.02828568267260        0.07832033113793       -0.10572579897375
C           -1.63043096447664       -0.77183199172242        0.78348862662779
C           -0.63239393095735       -0.29166906153893        1.82794968070278
C           -0.30300889665715       -1.36451011593789        2.87276790393128
C           -1.24818192704219        0.94367574161536        2.50700980108860
N            0.55568497400966        0.09769176569508        1.07089454519660
C            1.72538700013240        0.51522576249866        1.72450995653191
O            1.72070743927326        0.90066495379123        2.90979710409649
C            2.86615333034356        0.50777705694542        0.88713024682691
N            4.09495096997707        0.89388702567616        1.20341024651749
N            4.90075540409628        0.75751679043053        0.19656170041995
C            4.12543307073096        0.21965762806933       -0.93034576323141
C            4.70171353987335       -1.13841816164177       -1.35786173892690
C            4.14746452209538        1.21800081650404       -2.09868685298145
O            2.79789904238381        0.06143787052220       -0.44302662113838
N           -2.08508101113648       -2.05826834462499        0.79489740427074
C           -2.99582756116570       -2.58039904173837       -0.10939054465857
O           -3.35568535315642       -3.74625243621252       -0.02481584117400
C           -3.42937487535777       -1.60408563422644       -1.10139445001727
O           -4.31216331158420       -2.03225022427913       -2.01405168979875
H           -2.91809987902569        2.56721676237440       -3.84764457839971
H           -4.23998748953381        3.07674562864783       -2.76926943660799
H           -2.60869117782741        3.78545347178031       -2.57269373228229
H            0.17459736702852       -2.22407552996788        2.40605245006111
H           -1.21024684735712       -1.68440279200634        3.38251078391811
H            0.37906337363673       -0.94901475811085        3.61360547485983
H           -2.18245767829379        0.66622808072735        2.99295777303317
H           -0.56444719837620        1.34331179938337        3.25363419935114
H           -1.45130456963982        1.70763397860370        1.75711580728687
H            0.71949748499467       -0.45739628258879        0.24150053839036
H            4.11317467664467       -1.55718647345977       -2.17201322381105
H            5.73196885849789       -1.01224395795766       -1.68432760058929
H            4.67702982758652       -1.82257255521286       -0.51163113591664
H            3.73331111376507        2.16965853090544       -1.76935876627162
H            3.55355859528088        0.83893301398034       -2.92822815405156
H            5.17283866392892        1.37095902144743       -2.42931038113294
H           -1.76309051684381       -2.70810964978871        1.49585738723590
H           -4.54164325455378       -1.30013969744977       -2.63164822297524
