42
 energy: -83.592302380089 gnorm: 0.000635284178 xtb: 6.5.1 (579679a)
C           -5.28316255005177       -1.88636819698255       -1.60377018817989
O           -4.07971408909344       -1.37043048413534       -1.08116254683132
C           -4.02698477491298        0.04362093410912       -1.00238170602684
O           -5.02362586911301        0.68245785498570       -1.38468342756693
C           -2.80600840308186        0.51373015464442       -0.47668058442291
C           -2.50311061529420        1.94968432740426       -0.29889253578087
O           -3.30988444589415        2.87693115625055       -0.61615020462885
C           -1.23841379857980        2.20360169413143        0.24814271082467
O           -0.68718522079030        3.46231082594072        0.47954707749709
C           -1.45161516728110        4.34381624247489        1.29067321678330
N           -0.37836755373695        1.16195779434565        0.62741009547352
C           -0.72466756816898       -0.13846528276587        0.36659693235367
C            0.26814313682144       -1.20660193627497        0.79437615333110
C            0.18027191578330       -1.34286320454829        2.32425030483103
C           -0.07622654343409       -2.53690474506164        0.10940169079097
N            1.60543917082325       -0.74259286429491        0.40855127124598
C            2.72758111455643       -1.56212763083167        0.58737263245705
O            2.75070645112645       -2.52045261195392        1.39300736086316
C            3.85872826471587       -1.16372625911664       -0.18751871723176
N            5.07681401112928       -1.71711824431423       -0.20377223648976
N            5.81205611277411       -1.01001266872040       -1.11316021911437
C            5.04824328213329       -0.08802769233839       -1.60258265378212
C            5.40921609620490        0.92725002338198       -2.62691894729766
O            3.79647153166156       -0.10596075625943       -1.08097651007330
N           -1.86296009950183       -0.46321571517958       -0.13260131074273
H           -5.45805678564362       -1.54064746285376       -2.63147115572057
H           -5.20026477321389       -2.97494615720782       -1.60448302746872
H           -6.14754376462519       -1.59418818607364       -0.99250483079976
H           -2.40187710316987        4.60675934116664        0.80929878001423
H           -0.85557960822971        5.24840302453596        1.42521571964741
H           -1.65854239594441        3.90370574504184        2.27451800862830
H            0.54550755722790        1.39931506938641        0.94467954784109
H           -0.84680863005591       -1.57133735278218        2.60961805329241
H            0.83078587331778       -2.13761973232351        2.68506331012972
H            0.47530903180013       -0.40525182127629        2.79438062573393
H           -1.11249967639231       -2.79691653527201        0.32620441864796
H            0.57445216381208       -3.33257872922278        0.46869288175465
H            0.03922804294530       -2.44101900525986       -0.97026857988903
H            1.62324208893378       -0.22233121426957       -0.45911706613012
H            6.28436691759915        1.49259029868681       -2.30686839708271
H            4.57762797812785        1.61165143868815       -2.77888998550796
H            5.64890569471950        0.44391756414607       -3.57466496137620
