42
 energy: -82.996649289186 gnorm: 0.000224647564 xtb: 6.5.1 (579679a)
C           -3.53551341528792        0.70712433758345        1.97288837174057
O           -4.00477712158047        1.54609530610995        0.91918784380413
C           -3.48344103772011        1.61856839615562       -0.29408696024314
O           -4.13861877526846        2.43091496484243       -1.09767707833707
C           -5.30447830875009        3.10436101459844       -0.62001552389319
C           -2.36490022640749        0.93786047262006       -0.78367192343518
N           -1.67441378229808        0.11575649335604        0.10474217437496
C           -0.65838788659928       -0.55244570579267       -0.29007661530330
C            0.07171696594248       -1.49125270079141        0.64846799942652
C           -0.12541726422935       -1.07485037548215        2.10800661782273
C           -0.44241052490839       -2.91514863395069        0.41126808308390
N            1.49815722499490       -1.47341446379423        0.31846275542711
C            2.21397068300322       -0.32413224437396        0.32893348259039
O            1.73679319289073        0.78957753828984        0.44637142010902
C            3.66087363216356       -0.59419980518411        0.14018083949415
N            4.21414490617462       -1.76566489982219        0.03568676686587
N            5.54995113341445       -1.55654057825073       -0.12319161086979
C            5.72811659502250       -0.26965577121741       -0.10433681831830
C            7.00493519181698        0.46509145411618       -0.24104670277783
O            4.57309913971850        0.39176919707614        0.05942296814653
N           -0.21267406915234       -0.53536448146761       -1.59122720042609
C           -0.76407522779368        0.22789930678327       -2.58297155912612
O           -0.32207192777386        0.19866642482907       -3.71762447945997
C           -1.95020996480669        1.08221858619797       -2.16044606897497
O           -2.48226330713326        1.81086648465665       -2.99081763605380
H           -4.23774929704568        0.84686761083784        2.79490452274980
H           -3.52875745256995       -0.33794615799270        1.66041783884382
H           -2.53219459490715        1.00330187178537        2.28300990845358
H           -5.04918672665717        3.76110588274224        0.21414559563624
H           -5.68100111214796        3.68788684009889       -1.45838450324537
H           -6.05442813190234        2.38012265781233       -0.29632210465395
H            0.46295473154397       -1.71957354320193        2.75777648660853
H           -1.17633977758007       -1.16843868446682        2.37304495745239
H            0.18586098358417       -0.04062113215045        2.24906283452508
H           -1.50936113113937       -2.95767785038521        0.62343332019423
H           -0.27523518301904       -3.20790492582588       -0.62402853868951
H            0.07577547876083       -3.61249148813183        1.06671906960214
H            1.99471679000871       -2.35012859342693        0.32586588057369
H            7.19171731089972        1.05858172811971        0.65382086839751
H            6.95521253272893        1.14428237638319       -1.09208289895486
H            7.81839385428807       -0.24178085890024       -0.38494275777450
H            0.57151889971627       -1.11968905038457       -1.83878562538020
