43
 energy: -76.181767342689 gnorm: 0.000297241287 xtb: 6.5.1 (579679a)
C           -4.21369014060129       -1.51742692941309        0.58734312737070
N           -2.80575346469919       -1.12137743799545        0.66119780614422
C           -2.35797058872158        0.15140182561596        0.40393285960897
C           -3.30258031343525        1.28843375852466        0.03343946562748
C           -3.91465388096853        1.85988013911414        1.32145928980679
C           -2.50498406566780        2.39249248930789       -0.68190606816665
N           -4.36881624961850        0.80991312169081       -0.84024584721749
N           -1.10683543269595        0.46787272874006        0.51020974646527
C           -0.15233071082721       -0.44552974818491        0.86015452026601
C            1.23235074603010        0.13031483882133        0.93460583154920
O            1.43141277886789        1.33165497418058        0.79557692411126
N            2.22767145554046       -0.74507990885072        1.17916207280320
C            3.61918085054219       -0.30483103999324        1.17909676287079
C            4.19939393526847       -0.38453506385478       -0.21733731952769
C            3.93590909030130        0.62505786694426       -1.14173856631585
C            4.44169978486918        0.55026500899255       -2.43134647729632
C            5.21078720567245       -0.54833078406269       -2.77185529736594
F            5.70530608163867       -0.62783245146206       -4.01859836867063
C            5.49274600225895       -1.56710700714358       -1.88051062258278
C            4.97606238427563       -1.47691638041491       -0.59485132846900
C           -0.52839001615507       -1.73636536120919        1.09116658586133
O            0.31762204772945       -2.73170104920217        1.43241315156114
C           -1.92032279080610       -2.13115700030749        0.98421900375814
O           -2.27547038325678       -3.29250505123924        1.18423574950447
H           -4.33459497189760       -2.44314947109441        1.14985746247759
H           -4.49557167291356       -1.68016110285870       -0.45154486683014
H           -4.84502239625238       -0.74422537895213        1.01271718076964
H           -3.12258049286949        2.18912589213537        1.99341206883229
H           -4.52081598630024        1.11477556163250        1.83359858545931
H           -4.54661285816794        2.71243381367108        1.07730040781314
H           -2.02303768419021        1.98958990924127       -1.57159491866376
H           -3.18309733803872        3.19049503036623       -0.97865712986076
H           -1.73967367197987        2.79967845949036       -0.02193959768415
H           -3.99878406970466        0.64049572770050       -1.76668414660977
H           -5.07698931842920        1.52567102164377       -0.92119091542963
H            2.06162419592668       -1.73730159030157        1.19366980021595
H            4.17597906506698       -0.94822994574637        1.86376048490276
H            3.64927847061261        0.72571366097916        1.54686430049523
H            3.32979363922646        1.47569403394163       -0.85052621367818
H            4.24753807798145        1.32706395908608       -3.15954788432392
H            6.10031274560834       -2.40901349146582       -2.18501107268359
H            5.18443812259140       -2.26474302124710        0.11926169050039
H           -0.20052718181052       -3.55303560682170        1.53642976260093
