47
 energy: -79.491704434495 gnorm: 0.000701716014 xtb: 6.5.1 (579679a)
C           -3.38798371203571       -1.92517409558181        1.16412297101640
N           -2.43623094105881       -1.34967799589785        0.20859050167622
C           -1.35215384169350       -2.13503019312370       -0.06476061283163
O           -1.17788578196179       -3.26511401620408        0.36007821539136
C           -0.33685223116742       -1.52510773952237       -0.94595868282523
O            0.70700343167105       -2.23731500349752       -1.22707121759424
C           -0.42913093383968       -0.14173397012423       -1.28973856327414
C            0.30504554075814        0.39272438725041       -2.50829955152712
C            0.38752403479263        0.33346546341949        0.12910848724850
O           -0.26629314373079        0.68777870090481        1.06287145297547
N            1.68752747839477        0.27734488208135       -0.02569310432053
C            2.56607289561315        0.86059201497357        1.01338064005989
C            3.99168018184389        0.47133637548181        0.72940974100448
C            4.62056724574598        0.94426342962011       -0.42236243612375
C            5.93324395469484        0.59447885814540       -0.70081075819868
C            6.59730763610932       -0.22660997024265        0.19424423987462
F            7.86519946160471       -0.56522329281207       -0.06463628799610
C            6.00201448288140       -0.71177748313294        1.34534959162852
C            4.68557661458146       -0.35911768334089        1.60647906663687
N           -1.70254452116344        0.42448043189408       -1.14061064906195
C           -2.60853903446957       -0.10999436718186       -0.40110411315010
C           -3.87293800150060        0.71623114093176       -0.20896321340469
C           -3.84157853723884        1.32327457730410        1.20180852613241
C           -3.89871500226718        1.84732880310691       -1.25023496138929
N           -5.05877311764126       -0.11760811282124       -0.36103430123012
H           -3.30348070979484       -3.00983263731760        1.11456497089231
H           -4.39679916644319       -1.61134932309196        0.90444001350041
H           -3.13127647801370       -1.58558065619478        2.16734670016389
H            0.65881834662809       -3.12791301099499       -0.81138551871720
H           -0.36503800586988        0.31507799560354       -3.36335108045510
H            0.56733331757757        1.43832955732695       -2.36456446747599
H            1.20175927071312       -0.18896197065811       -2.70728141824641
H            2.12113718915271       -0.13225863679039       -0.83685660180527
H            2.22542669969376        0.48956552968073        1.98368462974692
H            2.44118567163999        1.94760864354850        0.98724871825123
H            4.07946649155039        1.58810450321550       -1.10498670871746
H            6.43167917054867        0.95119126308605       -1.59245980099535
H            6.55400188374458       -1.35525865352144        2.01829658585097
H            4.19724404617174       -0.73163946605036        2.49890604547478
H           -2.89009902921968        1.82866055040264        1.36477787015881
H           -3.96782435286963        0.55429709100196        1.96060589337084
H           -4.64991817906787        2.04618423448438        1.30080786938232
H           -3.06371038088027        2.52874950387615       -1.09541216458655
H           -3.83397017046323        1.43437240020122       -2.25533368783211
H           -4.83210007505236        2.39888220007760       -1.15314105924444
H           -5.87671489436779        0.42641184592942       -0.12195325974657
H           -5.14626280430151       -0.40845610545362       -1.32472050969397
