42
 energy: -82.983012022486 gnorm: 0.000483650123 xtb: 6.5.1 (579679a)
C           -4.79877296046330        2.29572394044254       -2.15407829222828
O           -4.29645799535990        1.22973405054299       -1.33836342566984
C           -2.99698285947755        1.21690392905509       -1.10443775485409
O           -2.21352520950012        2.02415083379636       -1.53806969644316
C           -2.57744098173100        0.04982360180251       -0.23191872529271
C           -3.53628835860975       -0.59212527740857        0.70953321914971
O           -4.56176261117494       -0.07810112897361        1.08012309378047
C           -3.09519046063351       -1.96987489984205        1.20651293764231
O           -3.86704138730395       -2.77296068050657        1.69161090514235
N           -1.77820169854167       -2.21703111902790        1.05632250294767
C           -0.79055894742605       -1.37047102068203        0.41773614909291
C           -0.00015362077807       -2.22692528849400       -0.57963989645715
C            0.12575877810714       -0.71145799651965        1.53043194899088
C           -0.69830811713736        0.28205152542264        2.35452010032713
C            0.69883566616949       -1.77826417385249        2.46362563126918
N            1.17033455265605        0.05129053566580        0.86719189877409
C            2.38043187824827       -0.40757900245597        0.47681536461038
O            2.79415500308486       -1.54521784306358        0.60488713224197
C            3.16976273097355        0.68158298810825       -0.15289116046481
N            2.77407574885634        1.90328136363031       -0.34919180922554
N            3.80325738344416        2.55636898548293       -0.95641375393707
C            4.76227680045240        1.69064190079537       -1.09249949825336
C            6.09662850210338        1.90564325929784       -1.69359332183761
O            4.42152196388491        0.48859785748575       -0.60547544183130
N           -1.35302993208383       -0.30043758231522       -0.32894440453441
H           -4.30881662211811        2.27972637172608       -3.12980613477486
H           -5.86772703869828        2.12572695135875       -2.26113141813383
H           -4.61006929035533        3.25493945590738       -1.66761236250145
H           -1.46079179390856       -3.12311292438129        1.36440788368833
H            0.67881059637471       -1.59225517147955       -1.14352666306537
H           -0.70032297648049       -2.69598130012228       -1.26810152610539
H            0.56676963428170       -2.99792091887596       -0.06514416159042
H           -1.03675517196994        1.11471956806519        1.73974259458033
H           -1.56528674394925       -0.21715349120192        2.78451682900776
H           -0.08333572523662        0.67225970782522        3.16361245885228
H           -0.09211986252586       -2.14293241449350        3.11621628338985
H            1.11990130324836       -2.62001411863095        1.92102021362579
H            1.48177303161843       -1.33570595565890        3.07687629623717
H            0.94859765102003        1.01317574431759        0.64527103267121
H            6.23721915391189        1.23136268133147       -2.53820095043497
H            6.87357192896387        1.69215934645747       -0.95963457628704
H            6.18525805806433        2.93565470946801       -2.02992950209915
