43
 energy: -83.133933196886 gnorm: 0.000162684182 xtb: 6.5.1 (579679a)
C            6.08126968802624        1.75023963319535        1.42539281027165
O            4.98030719459940        1.54737664533570        0.53258227657211
C            4.05568378920038        0.67409061968383        0.91812710907373
O            4.10798223519890        0.06378776153242        1.96122101124507
C            2.94270129774285        0.51676300845832       -0.06733687539134
N            2.02703888823827       -0.44425936481819        0.29068985893508
C            1.01413657532397       -0.69406718518018       -0.46385110001116
C            0.04677652367007       -1.79059705751242       -0.05129589065562
C           -0.04949220381343       -2.87523862423284       -1.12691690389791
C            0.49423798537388       -2.39693087951406        1.27935924963000
N           -1.29573574743244       -1.19884949705498        0.20202103527883
C           -2.12249904204120       -0.79588970569615       -0.74047649201594
O           -1.96283800665494       -0.73927025187759       -1.93066074776332
C           -3.55637471190193       -0.32774262553839       -0.16986949941118
C           -4.61465826855361       -1.13692921124716       -0.91691244959662
N           -3.60711971485817       -0.42586342270531        1.23146150909698
N           -3.69832588581377        0.72658343625906        1.74543119178685
C           -3.73929462118354        1.63935888274263        0.71741288341695
C           -3.83627360628821        3.08518807126015        0.88160124191013
O           -3.66665104015291        1.05614250226012       -0.41932356213299
N            0.80386746567242       -0.03580825069012       -1.64097050965062
C            1.63130789601054        0.96338153305136       -2.09254679555453
O            1.42857253902119        1.57513065084733       -3.12913642981982
C            2.78024157595034        1.22808654359052       -1.22521032612039
O            3.60578023532356        2.18661824019891       -1.64862559347198
H            6.72853667045419        2.48978539675953        0.95811052610402
H            5.71879383993759        2.11588543008593        2.38892550223883
H            6.62078238521556        0.81173234911947        1.57409750695230
H           -0.33915708979628       -2.45850998183963       -2.08848550138188
H           -0.78549497445276       -3.61945274845308       -0.82881649541418
H            0.92208826569676       -3.35640779154320       -1.23181009190779
H            1.47954630417350       -2.84461758070412        1.15801765074047
H           -0.21100044561498       -3.16397008160416        1.59215732492200
H            0.55469327144953       -1.62465250813941        2.04465895013661
H           -1.61158423983388       -1.18749533655373        1.16070244387324
H           -5.60117470167950       -0.77215183500020       -0.64019528590800
H           -4.51620260238220       -2.18578953981179       -0.64814856324397
H           -4.45320349268512       -1.00843815813076       -1.98605898945048
H           -3.05710186976449        3.42656975092093        1.56629291795764
H           -3.75931572089361        3.59208571511873       -0.07773266807111
H           -4.79359994374344        3.32116024262201        1.35483867260028
H           -0.01162328113459       -0.24158126980565       -2.20454263431834
H            3.26437858439471        2.55454549460541       -2.48509326756175
