42
 energy: -83.011300726384 gnorm: 0.000737492415 xtb: 6.5.1 (579679a)
C            5.59725996272081       -1.42260653660694       -0.56337419182734
O            4.26091069592855       -0.93798175042049       -0.37607836949743
C            4.10782271230658        0.08780029295200        0.44504780355107
O            5.00652209177779        0.62632323729137        1.04033700381742
C            2.65570669273446        0.53212228625716        0.50233568671346
N            1.72472210490805       -0.46333874767526        0.12677323551651
C            0.52938704893496       -0.11839706477651       -0.14693779431641
C           -0.49120211168482       -1.17187924021337       -0.52947283842721
C           -0.12670986355259       -2.52397106191592        0.08977704369132
C           -0.53289824407780       -1.26524273259203       -2.05802356481187
N           -1.81098537943191       -0.73901384204712       -0.07203598955278
C           -2.05240388878357       -0.46996894299008        1.23206300121308
O           -1.19948069667259       -0.45367658408933        2.10234342557019
C           -3.47508855784697       -0.15302176014836        1.50137677020111
N           -4.01611433024204        0.16955057881816        2.63485349421576
N           -5.33915755764741        0.38372346655404        2.39190659650266
C           -5.52504188971492        0.17930534509384        1.12472903994619
C           -6.78733203329985        0.29041428021398        0.36285478521080
O           -4.38512301828083       -0.16413149435640        0.50320867347892
N            0.11055692118868        1.19134274682048       -0.25280169669845
C            0.96607927391676        2.26444469600844       -0.25615360137522
O            0.64371240593152        3.33760717447974       -0.72130955502851
C            2.32068215984098        1.98743683237058        0.32627084573864
C            3.35758559078918        3.06131318312151        0.10019209771075
O            2.30367697451173        1.34889253701218        1.57708376559698
H            6.20520836833867       -0.65074006138061       -1.03989964777345
H            5.52085909188275       -2.29662988614850       -1.20618568063262
H            6.03683745020185       -1.69129193905046        0.39963725458236
H           -0.08329520514358       -2.44366150179006        1.17527526449845
H            0.84838559669098       -2.83643493738867       -0.28014896078670
H           -0.87128558629810       -3.26681722226204       -0.18738765852377
H           -1.26533241797373       -2.01020811164868       -2.36198082896051
H           -0.80630634522677       -0.30350255684840       -2.48798647352014
H            0.44595326291002       -1.55739197781485       -2.43493953674815
H           -2.58303207697502       -0.81654316564891       -0.71053111189698
H           -7.60243277777888        0.54343194841418        1.03693649830343
H           -7.00304904611799       -0.65261936422792       -0.13869137077556
H           -6.69150893625905        1.06179152227615       -0.40128222827749
H           -0.80464918512689        1.35627594751289       -0.64443917386350
H            4.23536416615825        2.87529858983080        0.71420907387707
H            3.64394463156901        3.08285034375078       -0.94960042187079
H            2.93124694490681        4.02914547327943        0.36359233523200
