42
 energy: -82.976444684995 gnorm: 0.000628202008 xtb: 6.5.1 (579679a)
C           -3.58689626152359        2.42658696426988       -3.14639148966839
O           -3.68956086396499        1.29253276206959       -2.28832936537825
C           -2.57247395773256        0.94106667491827       -1.63523219829788
O           -1.52715618219073        1.55161700569682       -1.76691036328678
C           -2.73504889721042       -0.23544758193697       -0.75517303579184
N           -1.59012761259474       -0.58333941947882       -0.08360632572516
C           -1.63792638196566       -1.61732039664048        0.72456383991194
C           -0.34758641754839       -1.96686402889850        1.45723965856849
C           -0.55043395841400       -1.80099548345621        2.96782201296234
C            0.08043205976836       -3.39732350193097        1.11276145976773
N            0.65539200496867       -1.01127938383304        0.97820670110739
C            1.91909184121344       -0.94495834581990        1.36996601048472
O            2.49559436288661       -1.65324004006287        2.17415476736516
C            2.62971474204181        0.18599080377597        0.65997952384157
N            2.13830227991470        0.97657747392439       -0.24683610550529
N            3.14845184472364        1.80759493673586       -0.56780398452609
C            2.94340351765552        2.84278507107878       -1.55734890225898
C            4.21552530771762        1.51209926548099        0.14285628498872
C            5.54413939565547        2.14726325327795        0.13768040499367
O            3.91437895061267        0.49342722094208        0.92089123215913
N           -2.68138032850270       -2.39701906783166        0.98867125522613
C           -3.85392601071613       -2.12100171135630        0.36472534106555
O           -4.90409769585944       -2.76991007842987        0.52301313654156
C           -3.86988114682084       -0.97476990922927       -0.55607182855836
O           -5.05990037282146       -0.74526177285298       -1.14892550824385
H           -4.55929244201022        2.55621612579018       -3.61866371807469
H           -3.32767280504169        3.31753273874488       -2.56805024182021
H           -2.81846324830590        2.25988073900265       -3.90590600875541
H            0.34785241584495       -2.09212820038506        3.50993128257556
H           -0.78592312060574       -0.76310257255650        3.20031376625920
H           -1.38110075443577       -2.43319467854515        3.28095135028435
H            0.96645570203877       -3.67974135447043        1.67904365796088
H           -0.73693047916612       -4.07471534824363        1.35941624973721
H            0.29839027108987       -3.47605652997041        0.04829522327163
H            0.28308044932217       -0.34422487472112        0.29726115792352
H            2.28543087540900        2.45075794756142       -2.33055799881497
H            3.90715280402159        3.11991527016651       -1.97457470629740
H            2.48267656371690        3.70508989092811       -1.07566581312394
H            5.97609907553747        2.10357919344233       -0.86247821572540
H            5.45690481984764        3.19709416926999        0.41943032910845
H            6.19364789414897        1.63173822784583        0.84196186934117
H           -5.66634024072989       -1.43745245425721       -0.80518670557233
