47
 energy: -80.181420828825 gnorm: 0.000571569901 xtb: 6.5.1 (579679a)
C            0.22001360956559        0.78265460742803       -2.79250363279280
O            0.59666725427061       -0.44719169698165       -2.19639220685055
C            0.71846729531503       -0.44944103431589       -0.79483918218855
N            2.06068737762478       -0.70830493260881       -0.35886495397572
C            2.87773399527556        0.51398089082306       -0.24066161077789
C            4.31229390387319        0.15449793506356        0.05623451665211
C            5.10161613066369        0.97523863418477        0.85941412851148
C            6.42404435312728        0.64712711515448        1.12798244186781
C            6.93482694753116       -0.51586522230514        0.58217521077966
F            8.21721848523879       -0.84330808618905        0.84006063419481
C            6.18276429303046       -1.35699844923264       -0.21767935661698
C            4.86530252565570       -1.00928789532456       -0.47749087409975
C           -0.36280812088174       -0.32073336667790        0.03214698663584
N           -1.63089120489130       -0.21761670398779       -0.56694420885654
C           -2.71319200130238       -0.16680217836631        0.13309355319276
C           -4.00601560744597       -0.03282544358295       -0.67965951960321
C           -4.43874439985340        1.44080747158126       -0.69970224870542
C           -3.75229092410270       -0.49121609918140       -2.12671660020942
N           -5.08292174323900       -0.84305123757555       -0.10683743913359
N           -2.73128047654518       -0.17254106411745        1.49949589360642
C           -3.94467436628444       -0.15372070234843        2.30574701351805
C           -1.48707076992366       -0.21134262641193        2.23175381825823
O           -1.51509724624718       -0.17177052645875        3.49617431852334
C           -0.34883957406594       -0.28810114256505        1.46183872344465
O            0.88336612629340       -0.29507504630294        2.15239333144589
H            0.90577294882465        1.59567467132469       -2.51726035568567
H            0.25408207032516        0.64208745068106       -3.87591468073748
H           -0.79978595438805        1.07078943999884       -2.50294736430774
H            2.03264848147057       -1.13830462501774        0.56557464295622
H            2.48145016556785        1.18011213514434        0.54085428262136
H            2.83380611452820        1.05149848726374       -1.19489267552349
H            4.68461306545711        1.88276676053031        1.28168927834870
H            7.04604648636160        1.27751219325396        1.74960291072653
H            6.62113919680617       -2.25873794482735       -0.62530830138422
H            4.24961721476633       -1.65215210435718       -1.09890459694615
H           -3.62752871050401        2.05706241982983       -1.08750760134866
H           -5.30925498092926        1.56380359508721       -1.34342568890387
H           -4.69809685448507        1.79304979176518        0.29757552176659
H           -3.03616743525163        0.16861357083868       -2.61560819606604
H           -4.68735136821714       -0.47214809002349       -2.68463537323693
H           -3.35423423033279       -1.50573622512330       -2.13727375237432
H           -5.95661858606435       -0.57710160986477       -0.53732127505803
H           -4.92619270697069       -1.81819932248008       -0.33025509795046
H           -4.64800865041820        0.59492818751590        1.94569258204143
H           -4.43598873225975       -1.12954694406100        2.29308634912204
H           -3.66808732341130        0.08937015164052        3.33477132258095
H            0.65696492644507       -0.23445518882322        3.09524433253404
