43
 energy: -83.885127168056 gnorm: 0.000435790331 xtb: 6.5.1 (579679a)
C           -6.20204631059250       -2.09668980834152        0.90768801951830
O           -5.14415156299176       -1.39052951691392        0.26891667442103
C           -3.98249395235115       -1.32492497586239        0.94200484843917
O           -3.85761687295973       -1.84514333997511        2.03509352085284
C           -2.89806828283679       -0.58545837376282        0.23340810124729
C           -3.13419750501830        0.31703778412693       -0.80205268339380
O           -4.40082295231719        0.55507706574162       -1.34241514698692
C           -2.07937910355442        1.13880974436346       -1.28614948064313
O           -2.22390403649996        2.01701914001555       -2.15854050248418
N           -0.85764440573742        0.97586955852149       -0.64523696457363
C           -0.55283235362658       -0.27798774885248        0.03638925623983
C           -0.01845526960932       -1.29678079671011       -0.99927647684775
C            0.51769888067597        0.01965143988186        1.14663689589225
C           -0.06063673529168        1.03784356807092        2.13203859965232
C            0.87048728837766       -1.26526555533726        1.90342835509590
N            1.76464432090237        0.49953775990281        0.53438018621306
C            2.14858577406022        1.76747574652403        0.31648920229383
O            1.51350583979506        2.78361075837954        0.56189989818364
C            3.50819916823906        1.84873549105120       -0.29042189665861
N            4.16982196527193        2.92420881551223       -0.58908310724236
N            5.36647496065494        2.51985969438539       -1.10871813924421
C            5.35971260980722        1.22483805182453       -1.09439576932742
C            6.42597719451744        0.30805083385421       -1.55388495005318
O            4.21422445650375        0.73505346959171       -0.58929899672225
N           -1.68835137838478       -0.84883005740103        0.71743686979772
H           -5.90585307725057       -3.13034139763286        1.10870575902240
H           -6.46944598541528       -1.61516062983820        1.85287751668080
H           -7.05269740898794       -2.08024753669410        0.22834315222761
H           -4.28017462953457        1.25103938287796       -2.00936509135522
H           -0.07410030779489        1.36749397861289       -1.14927767618283
H            0.09338541700916       -2.27558410253541       -0.53832857167366
H           -0.72975860737715       -1.37898710308389       -1.82039520271549
H            0.94058941633669       -0.97180663306192       -1.39728122906149
H           -0.45727126972402        1.90755177711141        1.60981699606347
H           -0.87658632766824        0.55927547194885        2.67511598911753
H            0.69822672269323        1.36108468201229        2.84268296860116
H           -0.04854664399496       -1.75279873310748        2.23012884910537
H            1.48086069960181       -1.03125971425992        2.77488765115402
H            1.42723993263331       -1.95405555225549        1.27068520198222
H            2.42695637378063       -0.21824529898235        0.28915792812061
H            7.27674012897980        0.88502374753544       -1.90777500221200
H            6.73876619645625       -0.34017256761361       -0.73592782873698
H            6.05293563322067       -0.32387751961184       -2.35958172381329
