38
 energy: -79.621587462369 gnorm: 0.000546907266 xtb: 6.5.1 (579679a)
C            6.28460450326231        1.61972624783298        0.86346913502144
O            5.15471094241400        0.81503042005031        1.16712968779907
C            4.15313792326843        0.83094641412690        0.25054362269595
O            4.24716542038749        1.51660503913338       -0.76183305425264
C            3.01497813010334       -0.01320760253452        0.57873311452233
N            2.02268715023099        0.02963038876325       -0.38375645472616
C            0.95404099409487       -0.66649312157625       -0.25946319095113
C           -0.11166694223014       -0.60751991243189       -1.34296550955306
C           -0.41142088414625       -2.00042638013928       -1.90875853773134
C            0.37119064360737        0.31251429270237       -2.46654722905643
N           -1.34233831024928        0.00283623246349       -0.80251731182963
C           -2.23875185669258       -0.59469204560730       -0.00064302036708
O           -2.15058094135665       -1.71468722432938        0.47847956302562
C           -3.39126588115886        0.30692224844409        0.27135383290685
N           -3.51409606066662        1.53838715362164       -0.12427119571198
N           -4.70720851585952        1.98878876719426        0.35758454546893
C           -5.23556410752836        1.00241687022650        1.01598622239783
C           -6.53535473006476        0.98014629573914        1.72209931453736
O           -4.45129607620115       -0.08552559666782        1.00073714660266
N            0.74301325687920       -1.48385801262577        0.82950576319327
C            1.62789443571109       -1.60986069954999        1.86696457586350
O            1.36069058212340       -2.34512599920585        2.81555100609386
C            2.90549070113787       -0.80664467544050        1.75063128286064
O            3.74712985789401       -0.89397008514917        2.66410862593547
H            6.75844001226057        1.28805308420623       -0.06563055847609
H            6.98462974078234        1.51438547140641        1.69142366165749
H            5.99582325239423        2.66982663160578        0.75458282663139
H            0.48586321176924       -2.39056824583319       -2.38701534080528
H           -1.20554361127253       -1.93266608598424       -2.65021286057207
H           -0.71999067711223       -2.69196546090474       -1.12834487056669
H            1.28475829964327       -0.09133865535848       -2.90021060668200
H           -0.38831295069350        0.38661342636129       -3.24210492979804
H            0.58634234040250        1.30653088685852       -2.07600745003265
H           -1.57610922685429        0.92210501716097       -1.14611630858601
H           -6.98832876673854        1.96761837235734        1.68595493058321
H           -6.39261127119177        0.67885267741569        2.75938786509436
H           -7.20212663748023        0.25846560965281        1.25033407408508
H           -0.12002295087615       -2.00785374399642        0.89474463272560
