42
 energy: -82.994573943765 gnorm: 0.000743730392 xtb: 6.5.1 (579679a)
C            0.94770536943757        0.93131302026927        1.96353344062038
O            2.12126296039941        0.17499354640112        2.25959331551528
C            2.86912563283165       -0.46324051379440        1.37702364504899
O            3.99875573599342       -0.91899216431685        1.87569987532679
C            4.31684044735289       -0.66462281893950        3.24557635417246
C            2.59197104207847       -0.68270547821029        0.02352446309462
N            1.33472366534713       -0.30877776170908       -0.44271692625476
C            1.02722844854491       -0.43818047121055       -1.67924554025758
C           -0.34933409039848       -0.02433778022452       -2.16576324379116
C           -0.25086117017832        1.36484178055035       -2.81517776212946
C           -0.94346596214527       -1.04958517178090       -3.13922834251460
N           -1.18835022602547        0.04703207130378       -0.97253852119327
C           -2.46885963779450        0.45657918636393       -0.95137804395141
O           -3.13160454064629        0.78887140542725       -1.91857288372377
C           -2.99172057675545        0.44733492636316        0.44266608009628
N           -2.31913596179734        0.13762553158310        1.51150767384989
N           -3.17345429065629        0.26353814974756        2.56540696602496
C           -4.31380720707446        0.64263065277130        2.07238019753086
C           -5.56853363774938        0.91528402033187        2.80727718772248
O           -4.26094351047937        0.77578225571361        0.73873340928738
N            1.91645523739322       -0.90900725957188       -2.61597786401179
C            3.18155425536821       -1.34908370092713       -2.31988557301940
O            3.91401544698626       -1.77116652416993       -3.19471034374513
C            3.57710061718757       -1.26989953826015       -0.85348812979150
O            4.68426868012102       -1.67090529926661       -0.51412361661749
H            1.10269359733307        1.56334860223268        1.08843843420316
H            0.76352549563576        1.54723124121516        2.84461653063016
H            0.09520563699120        0.27013496129368        1.79174616370304
H            5.29722153034546       -1.10631004971626        3.41530066176660
H            4.34714169070573        0.41034494218373        3.43337067747608
H            3.57450185032132       -1.12745704342676        3.89888337323106
H            0.44772101413369        1.33008295333635       -3.64896702764669
H            0.10189522068167        2.08975189969748       -2.08327872113918
H           -1.22818316350077        1.67288854519302       -3.18250163370323
H           -1.97026050942113       -0.77331768104701       -3.37309619365565
H           -0.37410542171520       -1.06776401085512       -4.06583034624674
H           -0.93366426486757       -2.04213501435901       -2.69193135936334
H           -0.73803765894049       -0.18943565651269       -0.09818788821660
H           -5.41369961014056        0.74370119102723        3.86963780315074
H           -6.36248133735153        0.26355910112427        2.44288131314126
H           -5.87903525749322        1.94742724542456        2.64561681859388
H            1.64862545993483       -0.95737529125595       -3.58681542321514
