21
 energy: -31.463461991797 gnorm: 0.000483401384 xtb: 6.5.1 (579679a)
C           -0.06162342607721       -1.92948159190568       -0.31697179717043
C            0.19744439042018       -0.77652100468926        0.70362777081517
C            1.67595252578509       -0.67520328387629        1.02480468804335
C            2.41845078663095        0.32960265320922        0.49706064769015
F            3.77533595455357        0.30462806618647        0.73858899901875
C            1.92854872006021        1.42838856336575       -0.21630023369563
C            0.51854080376428        1.51828141949083       -0.29675913546436
C           -0.32294730991678        0.55300172417149        0.17472762691948
C           -1.82062523319799        0.75449549762990        0.14169490381677
N           -2.36530293836805        0.67889093047291       -1.23621342567549
H            0.33114775179827       -2.87042159708955        0.07220914061677
H           -1.13102899113285       -2.04740190938722       -0.49641417587708
H            0.43182959386962       -1.71085114437133       -1.26533599677106
H           -0.36050828294217       -1.05761812579331        1.61967029794814
H            2.12944820461776       -1.46414434755206        1.61297285215389
H            2.58157395864072        2.20860079429007       -0.58266532451955
H            0.08856974399505        2.42633026359108       -0.72364603885795
H           -2.08615649970147        1.74983722204841        0.52857708631924
H           -2.32433716372837        0.00866026802986        0.77969045530959
H           -3.36095446213708        0.83996241927382       -1.18330113057411
H           -2.24335712693385       -0.26903881709519       -1.57601621004559
