13
 energy: -19.064152763268 gnorm: 0.000683760058 xtb: 6.5.1 (579679a)
C            1.96277848135166        0.03021254558220       -0.01409749671679
O            0.57883929632540        0.08740020320908       -0.46637798576139
B           -0.66746965602703       -0.09310240266870        0.33198725048136
C           -1.98762503052337        0.07947036580385       -0.45717243370270
O           -0.54904398258244       -0.38949725877129        1.60753493312870
H            1.97838090420100       -0.56667213614810        0.89229906782468
H            2.54970158841899       -0.44831306556533       -0.79457639213213
H            2.31078167073029        1.04342232014364        0.18085883533701
H            0.50214011303759        0.38804360243997       -1.38268608332301
H           -2.85060429916311        0.00443974425405        0.20262969045221
H           -2.02051976859145        1.04294648129925       -0.96428395110093
H           -2.07804783969508       -0.68727667448293       -1.22645321939278
H            0.27068852251753       -0.49107472509591        2.09033778490567
