42
 energy: -82.974165389444 gnorm: 0.000712160899 xtb: 6.5.1 (579679a)
C           -0.65204349877511        1.97752560799089       -0.73589758299293
O           -1.87814591299559        1.52828339702316       -1.32674356794519
C           -2.55530870744431        0.47634622020993       -0.96739198155198
O           -3.67724851833131        0.29741904166045       -1.59689312425554
C           -4.09617622560087        1.24258675779146       -2.59021496648958
C           -2.17932233269758       -0.47141232357993        0.03220699130489
N           -0.95844993067483       -0.30130766339213        0.63575201556660
C           -0.59365507432263       -1.17726792561703        1.54853482340100
C            0.76288418952394       -0.91350370481602        2.19177942319534
C            0.60819114168156        0.25269887630561        3.17263491480331
C            1.30713455261636       -2.15471417551358        2.90028867561287
N            1.69147759615621       -0.47608398483180        1.14062054160417
C            1.92512579793642       -1.20665558520214        0.03528417260482
O            1.55670848278592       -2.35563449726913       -0.14829906787439
C            2.71881531486723       -0.46850147906418       -0.98560424345605
N            3.26523577929234       -0.94378188676842       -2.05982996378236
N            3.86972312766685        0.10405460637077       -2.69185780248210
C            3.64939080429497        1.15433647023286       -1.96696032933477
C            4.08787108562546        2.54282605713939       -2.22623291223448
O            2.92408293756720        0.86352579428498       -0.87231679645766
N           -1.28657196606274       -2.22021231254625        1.99621361329617
C           -2.50320526918396       -2.46481774711987        1.46821284277824
O           -3.25679090300749       -3.39554458351082        1.78709429856094
C           -2.97162650309090       -1.54323965345042        0.41327424402827
O           -4.16626918532821       -1.82615071169715       -0.09029947725833
H           -0.78358643333204        2.13024362102067        0.33509337806078
H           -0.41923586445213        2.91894342142085       -1.23168119113461
H            0.14374254211447        1.25024692842596       -0.90218287488429
H           -3.36878282385001        1.27399539919729       -3.40274672150746
H           -4.18777992760595        2.23305729881469       -2.14248845783495
H           -5.06100163009496        0.89264912411413       -2.95041733875777
H            0.22025450554181        1.12494493651526        2.64826271557360
H           -0.08997907813303       -0.02027303719053        3.96275112403509
H            1.56861136803624        0.50385349311401        3.61930723802568
H            2.28045963456986       -1.93667243335158        3.33590082079806
H            1.40361001139925       -2.98193331512477        2.19808957650272
H            0.61653231030024       -2.44652217355780        3.69051192247574
H            1.99681874218011        0.48085471935432        1.15822000000696
H            3.22398258210474        3.17023833416784       -2.44504841396140
H            4.58188878252796        2.94804079476227       -1.34465267354756
H            4.76922708606230        2.56024930858524       -3.07335098749307
H           -4.48659158985823       -2.62269401489013        0.39759314299748
