47
 energy: -80.210760562612 gnorm: 0.000393178550 xtb: 6.5.1 (579679a)
C           -3.82324263974654       -1.64600100657478       -0.90096503641130
N           -2.70358458405792       -0.71617565942962       -0.94965367676172
C           -1.68945324824574       -0.99399165973089       -1.97098414011300
O           -1.95152475996072       -1.85749569970887       -2.86471737006553
C           -0.57843190354755       -0.22045069844605       -1.88374502233581
O            0.49442775264522       -0.42127830614200       -2.80353770359645
C           -0.27266342266805        0.67243950125274       -0.72219896758287
C            0.49846173557342        1.94118930288460       -1.13603402617385
C            0.57989764763914       -0.13554313374689        0.29139974272431
O            0.22228087601645       -0.40346072351956        1.43419785312572
N            1.75579795541858       -0.58482399690648       -0.21842641528831
C            2.59699582110222       -1.51207600246997        0.51264568116134
C            4.00751280700405       -0.99239241310147        0.68373193719738
C            4.29946628237007        0.36411674589962        0.56844403434015
C            5.59678616393104        0.82734460500794        0.73940814463154
C            6.58810294251369       -0.09120681246865        1.03113151449868
F            7.84886519502260        0.34838211552272        1.19822574032436
C            6.33539549827724       -1.44533690522768        1.15615610688777
C            5.03297523573027       -1.88973423235902        0.97849079434327
N           -1.49982807190330        1.08924384469590       -0.06076285927059
C           -2.57338239036647        0.38468235752461       -0.15667905078505
C           -3.73729959071051        0.88696492422609        0.71143687072805
C           -3.91604636030005       -0.03298707546064        1.92706267633860
C           -3.42191482627489        2.30766674283915        1.21348529537008
N           -4.98643977118644        0.92273293899263       -0.05510844311412
H           -3.73205398055840       -2.31877510352228       -0.04159522818142
H           -3.80834228400198       -2.24916544550251       -1.81290624807721
H           -4.77762254319218       -1.12259321931792       -0.84566365917788
H            0.18870762598227       -1.09792481936542       -3.42680162091025
H            0.72873097730126        2.54167368150884       -0.25601841223871
H           -0.11921598895942        2.53222942740386       -1.81208783179518
H            1.42587314712341        1.68076583979693       -1.64320794500021
H            1.94008951456355       -0.48764300111845       -1.20692832874224
H            2.14438410336925       -1.67000953746491        1.50051292694080
H            2.62332422786326       -2.47887590920525       -0.00433988797614
H            3.50648979083856        1.06697342193539        0.33516470038410
H            5.83707431750381        1.87852650828551        0.64811422997606
H            7.13918981014754       -2.13315264037895        1.38257107902093
H            4.81500261670521       -2.94778653446493        1.06841764366943
H           -4.30329128322450       -1.00653327369590        1.63284763223230
H           -4.61917595243681        0.41271977969871        2.63035026998553
H           -2.95808054356812       -0.17097097074263        2.42980737711271
H           -4.26921246706116        2.69144226502908        1.78041297126217
H           -2.53954673411219        2.30020847211398        1.85329695662189
H           -3.23283931589168        2.97172194383231        0.37066636367570
H           -5.74831069440014        1.13242994485294        0.57335340266107
H           -4.94432668826741        1.67293041676706       -0.73286207161581
