43
 energy: -83.120192285370 gnorm: 0.000316020067 xtb: 6.5.1 (579679a)
C            6.70471490987249        0.29320887415179        1.70485116359742
O            5.49542521198738        0.77311128825405        1.10429966391693
C            4.57615099584946       -0.13646317896444        0.80999099108226
O            4.71376530765542       -1.32019409657707        1.00970612922143
C            3.33810084341598        0.44945612369437        0.20107731106085
N            2.39110317558039       -0.48657922746328       -0.11568404246393
C            1.26635817501345       -0.12814165195073       -0.63668006019576
C            0.26167107842282       -1.18343517750235       -1.03639259773874
C            0.54807644421574       -2.49932834317916       -0.30655746108287
C            0.33541085143219       -1.35575691131851       -2.56217487469049
N           -1.07602946849854       -0.70168922051997       -0.65277252599229
C           -2.20041135490107       -1.36598282321854       -0.96312752532891
O           -2.30558661277416       -2.38225926447064       -1.61162229168207
C           -3.42262807236654       -0.69395780808177       -0.38762667804924
N           -4.70112237527692       -1.15602975432731       -0.54477598158782
N           -5.47140945296631       -0.37509728665503        0.08108592332858
C           -4.72462092771642        0.66531156731229        0.70042619256304
C           -5.11923775649257        2.03471857720153        0.13440829194923
C           -4.86168743864000        0.60129183656980        2.22686047931245
O           -3.37704064550882        0.36299653625602        0.32826496256895
N            0.97215028537638        1.17459478720288       -0.91431268830936
C            1.83935964289148        2.20975479719663       -0.63800266891881
O            1.57342299635254        3.37387608896350       -0.87620019679232
C            3.10608662560964        1.78206853795913       -0.03854327282329
O            3.96796092007358        2.75482789186946        0.23724322518469
H            7.33725856955380        1.16390120261858        1.86509402687275
H            7.19612533842158       -0.41907849059388        1.03794949721283
H            6.47907075717982       -0.19489023353032        2.65578925393189
H            0.46817207080132       -2.34896674955514        0.76843109855160
H           -0.16304662433144       -3.26114589651517       -0.61893209628576
H            1.55886034173941       -2.82647776735051       -0.54600832158790
H            1.36425110771902       -1.57442506465906       -2.84499256149339
H            0.01700630808114       -0.43836183583961       -3.05260396260671
H           -0.30436635499301       -2.17505986444373       -2.88306396684529
H           -1.14624637470446        0.10086685456662       -0.05037227634648
H           -4.99354382104860        2.02628550032026       -0.94592153075248
H           -6.15810902936008        2.23263779243407        0.38744737431098
H           -4.47588973618989        2.79191656877245        0.57527549775781
H           -4.55688005044131       -0.38387898331727        2.57338780633298
H           -4.22195846022743        1.36198507261844        2.66749887340350
H           -5.89997828980638        0.78553564687216        2.49239546596542
H            0.08845432343539        1.42656412420825       -1.32552321080226
H            3.58083556556376        3.61524696099206       -0.00959043574869
