43
 energy: -83.870017623888 gnorm: 0.000942759295 xtb: 6.5.1 (579679a)
C           -4.97147187856189        2.10133493869284        0.31738600348404
O           -3.83085749906685        1.71755013600802       -0.41011410033394
C           -2.64837370022960        1.34240612766720        0.45849432861678
C           -1.49882594423969        2.23198847439125       -0.12999476566979
O           -2.84478050787369        1.46753597480207        1.72751554612170
C           -2.34119678990583       -0.16228439930411        0.05164170201660
N           -1.01247166706768       -0.46741357337315       -0.12749583335377
C           -0.62930234671646       -1.67517577261777       -0.36266908998853
C            0.84442103613964       -1.98333307231454       -0.56324107120305
C            1.08438004400502       -2.48253789955150       -1.99505526616587
C            1.32021065768500       -3.01843591779527        0.46546706368999
N            1.54943017689406       -0.72348289419856       -0.35507022611513
C            2.87819518379221       -0.56491648537691       -0.43491156295537
O            3.69047906455768       -1.43799637266363       -0.69908564435188
C            3.25738280246037        0.84621138934245       -0.14615692282981
N            2.44326440390049        1.81298524014647        0.15021984669968
N            3.20699268997718        2.92502569387307        0.34642687041747
C            4.43860812695195        2.56452109928347        0.15772582194065
C            5.65184950544837        3.40446546556538        0.26485580297210
O            4.53741121350641        1.26379949581753       -0.15560524871804
N           -1.50998907180020       -2.71077421292302       -0.44842475599380
C           -2.86889369232388       -2.53803886355677       -0.26477669328308
O           -3.65046344093630       -3.48796186900013       -0.34208185936047
C           -3.26096295338370       -1.17492760612189        0.00926840979588
O           -4.59744537794421       -0.99508749827373        0.19595058992582
H           -5.27665461034898        1.33319893503570        1.04448946378409
H           -5.78829109933216        2.24473131997272       -0.39852295868407
H           -4.81765323320842        3.04643836937846        0.86312082512087
H           -0.55907912190126        1.98582949758583        0.36196289735425
H           -1.74427880509853        3.27373006022368        0.06993206539928
H           -1.39899214564150        2.08154758663229       -1.20355962440483
H            0.51809014528913       -3.39546695899639       -2.16682159113306
H            0.76726448517669       -1.72667424885583       -2.71223520193409
H            2.14205733908336       -2.69387863538506       -2.14125185316864
H            1.16134216694493       -2.64447162764978        1.47598564404231
H            0.76856487780404       -3.94729473760074        0.33924512787833
H            2.38005716363781       -3.22094202808623        0.32294314273186
H            0.96269471344868        0.08135745692959       -0.13935726524023
H            6.26242506226699        3.29701888809042       -0.63088021675734
H            6.24947086853826        3.08582532189661        1.11907792567864
H            5.36678138703776        4.44599890754029        0.39289528799649
H           -1.19784582133479       -3.64551991739556       -0.65044587448331
H           -5.03354440764161       -1.85688378783376        0.10375426045933
