16
 energy: -34.111326725008 gnorm: 0.000495861085 xtb: 6.5.1 (579679a)
C           -1.66250884314351       -1.46436486949369       -0.07432090045014
C           -0.40720843558504       -0.67369332142043       -0.03808028016070
O            0.81532507634658       -1.26402871124059       -0.12390764219308
C            1.73673417224963       -0.14401623589214       -0.06035608319769
C            3.04867771057695       -0.37189227818524       -0.12769209126941
O            3.84796880000410       -1.30545128265037       -0.22592558108142
Cl           3.94933557701335        1.44577754677276       -0.01038039065752
N            0.99267723449080        1.05418228981651        0.05793100330916
N           -0.26887896310001        0.62404673250558        0.05722106563403
C           -1.33045599802580        1.59398740913901        0.17638119134432
H           -2.34519540833473       -1.14074440546856        0.71135655976313
H           -1.42593267376998       -2.51687590680403        0.06874910475181
H           -2.17568459970116       -1.34985706939561       -1.03180649466655
H           -1.81766230452181        1.49085751274762        1.14562677313692
H           -2.06420414450038        1.43627123848721       -0.61189901880018
H           -0.89298719999891        2.58579935108194        0.08710478453730
