46
 energy: -86.317609018349 gnorm: 0.000363639795 xtb: 6.5.1 (579679a)
C           -4.71080668483038        2.47673110393944        2.71468634087261
O           -3.82147097411617        1.68688925305225        1.91791856363989
C           -4.18914089831671        1.47354937128244        0.65421943364799
O           -5.21102564833848        1.90676303000100        0.17764208741685
C           -3.19354566120214        0.64086530898729       -0.08360373940893
N           -2.09357850297472        0.24006820802936        0.62254096273744
C           -1.17412847903480       -0.49669104813034        0.09199910438308
C           -0.03431521410665       -0.88955948861868        1.01979731974019
C           -0.12186004729656       -2.37813271131309        1.37347959835510
C           -0.09039204069940       -0.03933750762128        2.29371822588923
N            1.24045584145073       -0.57209659172489        0.32512238601309
C            2.41539137358727       -0.91318958020389        0.81846599232652
O            2.68927694886012       -1.54219261448957        1.80162560114737
C            3.63756394297643       -0.45386907609373       -0.12991758995378
C            4.26748783096716       -1.74450767402542       -0.65213710334504
N            4.47619315357761        0.36109618424848        0.64743803255830
N            4.51522768770886        1.53099546050927        0.15999528308872
C            3.73940110318625        1.54124467680945       -0.96281949728348
C            3.51274887124978        2.69505233927364       -1.82571880527270
O            3.20369910445643        0.38696373503431       -1.16851941031635
N           -1.25047705340588       -0.93091176226343       -1.20612379855684
C           -0.29250214681131       -1.79827049824418       -1.89382598365352
C           -2.31261221674886       -0.56280270625065       -2.01839616389122
O           -2.39130542695259       -0.93189010166590       -3.18274721681262
C           -3.32770897169800        0.27536230552303       -1.39554029696383
O           -4.34858973322102        0.62550792444951       -2.17746934575438
H           -5.67161697106665        1.96683099572394        2.82086870514925
H           -4.23536012968690        2.59410032445292        3.68612138509448
H           -4.86679590994992        3.45206801553534        2.24736371656027
H           -1.12424145155733       -2.58713510929423        1.74536506619513
H            0.59869030601032       -2.62427383614651        2.15104525427630
H            0.06976318971771       -3.00584251860595        0.50750293256110
H           -0.04965885126427        1.01765998139510        2.03811321752358
H           -1.01969343370516       -0.23933582261259        2.82435792279602
H            0.75117565939973       -0.28818047870126        2.93733406498161
H            1.19720401565721        0.01737376372300       -0.48808685102269
H            3.53583317845286       -2.27885266177902       -1.25306172696168
H            5.13098775111433       -1.49191998017453       -1.26359183321364
H            4.56880643391354       -2.35273875242333        0.19865709487153
H            2.91990990341774        2.42009836397759       -2.69440163232121
H            3.00125810707619        3.47414782965274       -1.25436820333624
H            4.47540092975375        3.11154048311930       -2.13096403824016
H            0.02799692339400       -1.29088926113569       -2.80290008109319
H            0.56486769836412       -2.00997305331088       -1.27038377939365
H           -0.79951558395537       -2.72461563837887       -2.16501584438127
H           -4.20899692335065        0.25230181448478       -3.06750135064656
