42
 energy: -82.884637444958 gnorm: 0.000586633138 xtb: 6.5.1 (579679a)
C           -5.89827626391968       -1.83643158728202       -0.21111494494332
O           -4.69888211499628       -1.05659236022556       -0.22400508767472
C           -4.72846270981639        0.06073960164776       -0.95198551446655
O           -5.69298420660483        0.41443193277661       -1.58645060585227
C           -3.43229936194256        0.80342941751096       -0.87292008662907
N           -2.46236925118618        0.21936888662363       -0.17177844877132
C           -1.28036589178412        0.78516534131008       -0.03706804278953
C           -0.25773747664158        0.08296594964637        0.80720468700067
C           -0.32074640720067       -1.43945040936796        0.56067973816528
C           -0.63453497260484        0.39669455562336        2.27436482990536
N            1.05632869717699        0.57797444912492        0.49952949159954
C            2.26248590978253        0.07092424735855        1.17424105341338
C            3.12739486352548        1.35423382939212        1.49681860710703
O            2.09538540980156       -0.68881166464842        2.19265846920658
C            3.03694382488786       -0.61836602837550        0.01973224826168
N            2.52158849999947       -1.32221322240323       -0.93190766791661
N            3.57764135946256       -1.78753764668240       -1.66935049237539
C            4.65545249728350       -1.32855756285364       -1.11914467691143
C            6.05780103654082       -1.53833926051130       -1.54024126289998
O            4.37608011714717       -0.57521823563600       -0.03699397646700
N           -1.00698710511837        1.99203704997568       -0.57141748548423
C           -1.90630687596477        2.73969503300864       -1.32815899100994
O           -1.58714595605803        3.82417815973238       -1.75637556830220
C           -3.26218894860169        2.08687392069861       -1.53297000832081
O           -4.11280188684217        2.65171405402076       -2.20130612764409
H           -6.14871326327052       -2.15754739320581       -1.22504786389847
H           -6.72312563861742       -1.24654453905767        0.19584141489983
H           -5.70118260510693       -2.69848080796297        0.42224950398580
H            0.31652535335097       -1.95289457185425        1.27710897630214
H           -1.34883227340580       -1.77520795238983        0.67958213362085
H            0.02666448610810       -1.65718886919361       -0.44796934626889
H            0.01850736969684       -0.15002252721319        2.94987169534966
H           -0.52971212026721        1.46438637362638        2.45437962938961
H           -1.66662825159402        0.09812474260071        2.44850554539341
H            1.21583348486182        0.87343078997105       -0.45116003988376
H            4.06611637591599        1.01641020248900        1.92622041310896
H            3.30349408893453        1.92753776639972        0.59325002834319
H            2.56920717341091        1.94028420021365        2.22035141844222
H            6.51469935058786       -0.58173325275867       -1.79303720494971
H            6.08529704006851       -2.19555335188519       -2.40613339686095
H            6.63012329639013       -1.98009548010367       -0.72490896050869
H           -0.11328365339406        2.42815021986471       -0.40114508266037
