42
 energy: -82.983777744738 gnorm: 0.000219880631 xtb: 6.5.1 (579679a)
C            6.89151788719839        1.70951949899411       -0.35851782662082
O            5.74748216782287        1.16026629513933        0.28101503828108
C            4.71569228453656        0.83079652719207       -0.53474226738371
O            4.79063219516265        1.01974883793727       -1.74328852993056
C            3.56481326897894        0.24934280490494        0.14211365557634
N            2.54640100163088       -0.08490218040565       -0.73304354628477
C            1.47122546112481       -0.62339395384285       -0.30102891936958
C            0.37430908286350       -1.03790590185423       -1.25762831736719
C            0.51365339071007       -0.28909042862800       -2.58471488397273
C            0.41480967277919       -2.55356251821233       -1.47148145482135
N           -0.93510224496765       -0.72506301850889       -0.65138497349982
C           -1.24956210176272        0.49475194276535       -0.20340539086296
O           -0.53714356931340        1.47705498545420       -0.19138498684436
C           -2.65066402183617        0.55710670320046        0.34480082284407
N           -3.24933192119438        1.58732174801790        0.86155886554207
N           -4.47429885524293        1.14251654063101        1.20016590592926
C           -5.44040718291948        2.04432529553079        1.79340716457402
C           -4.59595304693742       -0.12964767535584        0.88786184119068
C           -5.75167117091161       -1.02432916281031        1.05042690700265
O           -3.45887647987254       -0.52314192840878        0.34912167957551
N            1.27427994102491       -0.90810613461647        1.03552035927733
C            2.18288257101649       -0.60262847699060        2.01745531038256
O            1.92171245648475       -0.85926038383315        3.18974530448248
C            3.47045804190720        0.03851490050848        1.54349068928991
O            4.33305853192670        0.32841705697141        2.39154925284509
H            6.63332436579698        2.62925620582836       -0.89280817764070
H            7.62014311816518        1.92834709461529        0.42137656445454
H            7.31527458382848        0.99532465785687       -1.07160003719578
H            0.47682821832950        0.78646789182193       -2.41563026064740
H            1.47283157968284       -0.54125283780685       -3.03609981066708
H           -0.29071709207044       -0.57495969311729       -3.25839262037214
H           -0.38004931512971       -2.85937010997779       -2.14856427081968
H            0.28698431425563       -3.07001141784238       -0.52181272221275
H            1.37444479490640       -2.83684354054748       -1.90228812090479
H           -1.63944137159281       -1.43911654792341       -0.65835816959080
H           -4.93083255985927        2.97536246168434        2.02937661629345
H           -6.24298773347399        2.22018958092022        1.07895099112919
H           -5.84372005001595        1.58650555373939        2.69430351119600
H           -6.30847746022080       -0.76825084010001        1.95002802725769
H           -6.41787497924733       -0.91436561612467        0.19153233219895
H           -5.40909527538670       -2.05698943797411        1.09248270076071
H            0.41344750182432       -1.33894177884357        1.32142974692324
