42
 energy: -83.011570539331 gnorm: 0.000479040295 xtb: 6.5.1 (579679a)
C           -4.79339544244248        2.68002997361967        2.03403455740425
O           -3.80476816066398        1.81370747813905        1.47118335843222
C           -4.13124279463333        1.20134599265483        0.33081096001907
O           -5.19799027494383        1.35162034674415       -0.21835044210985
C           -3.03342809824591        0.32237670594619       -0.16547502421680
N           -1.90069236929006        0.27462585350795        0.59793479203684
C           -0.88762636128004       -0.46015671480758        0.27108328336770
C            0.28130306009678       -0.44202332744737        1.24723020164159
C            0.24512786999867       -1.72831904635540        2.08738312142010
C            0.15562326858178        0.78166201855487        2.16699630092194
N            1.53258468025065       -0.31960238385957        0.49058274399667
C            2.75383300092964       -0.35790885460345        1.07208075384733
O            2.97736143473411       -0.63964020717004        2.23632088342175
C            3.84485284505858       -0.03213293333649        0.12085461888838
N            5.11638343300185        0.02711459429494        0.37010072169794
N            5.72955966114465        0.38587573035573       -0.79047062304763
C            4.79524597439437        0.52589129570823       -1.68023598642947
C            4.94844538825086        0.91396631109995       -3.10095077563461
O            3.57933653270871        0.27598064244660       -1.16829492247650
N           -0.90062604961188       -1.25051587914517       -0.85086890863098
C            0.18299337052015       -2.13250060341811       -1.29055544332378
C           -1.98572716157722       -1.25257867537744       -1.70896136422459
O           -2.00745855290360       -1.93172961121847       -2.73045424884109
C           -3.10687686865782       -0.41188383553933       -1.31672524894369
O           -4.15894189054961       -0.42916779578713       -2.14080203723371
H           -5.10448648128500        3.42566127543634        1.29806290283325
H           -5.66360395633667        2.09994614126982        2.35113902383046
H           -4.33185046156695        3.16539120946695        2.89170106518134
H           -0.75362058415014       -1.84430804141923        2.50633667734996
H            0.96329452694591       -1.66639012026149        2.90255839868184
H            0.47479229494962       -2.60264030147606        1.48329459209250
H            0.99928709486994        0.80883806070215        2.85424038392212
H           -0.76935227552386        0.72165280933903        2.73732853503124
H            0.14577403856710        1.69388219133686        1.57307271248651
H            1.47272497908284        0.07292665890147       -0.43463457535472
H            3.97742281388495        0.92080241998167       -3.58874558331188
H            5.39364437199365        1.90671676172091       -3.16914428635310
H            5.60644460553526        0.21078381180220       -3.61113304222280
H            0.66764127622845       -1.68647062527967       -2.15852480414423
H           -0.25773927342895       -3.08627628752876       -1.58090803473316
H            0.90688346594790       -2.28423502304515       -0.50020751089533
H           -3.96113293058655       -1.02231501595438       -2.88889072637699
