42
 energy: -83.583695633807 gnorm: 0.000226596580 xtb: 6.5.1 (579679a)
C           -6.06863782054447        1.93400304438080        0.19737984372292
O           -5.10979649696341        1.19688624726818       -0.53785065666496
C           -3.86175268294895        1.05671400302552        0.11363139688983
O           -3.73643053348885        1.57950213061766        1.24872544212830
C           -2.90565557952672        0.34347277838748       -0.62422304706945
C           -3.08803140907975       -0.34301466517002       -1.86555245895084
O           -4.17392311451842       -0.08060409429118       -2.69136926748811
C           -2.18519879103658       -1.32323437106192       -2.31876954429543
O           -2.26916732088463       -1.94909579946849       -3.41245263455217
N           -1.11738405815985       -1.64007358048853       -1.44019218570674
C           -0.84389904172457       -0.90749137652668       -0.41538687324100
C            0.38090567974469       -1.34019515312842        0.40997685714653
C            0.85929334559973       -2.71148981142575       -0.10233343351294
C            0.00516832425263       -1.46695982911285        1.89493430620266
N            1.44199430916825       -0.34494806714359        0.20742192204185
C            2.70551856715519       -0.52897407058666        0.80972125358457
O            2.86593442226025       -1.17419450849516        1.87014389264259
C            3.72370614138661        0.16260695066070        0.09593849797844
N            3.57126703632324        0.82361473810862       -1.06214087945346
N            4.80881025246888        1.30046594759178       -1.40059900838058
C            5.63368621346758        0.92823762494545       -0.47798301147291
C            7.08878639746681        1.21565575504425       -0.40902368624174
O            5.04505201594280        0.20580715492627        0.50731210565561
N           -1.60811795673710        0.15357235943077       -0.02499794950993
C           -1.08445599621401        1.24578192975696        0.79200129423879
H           -5.72214996311748        2.95714746941606        0.38717427702007
H           -6.28396234422774        1.45540057005562        1.16056511564034
H           -6.98103923768430        1.96822882385034       -0.39844260371511
H           -4.79022361826893        0.52686800143836       -2.25509005944500
H            1.72400005220747       -3.04084136364354        0.47202237532585
H            1.13374791916809       -2.64912065600139       -1.15523994345070
H            0.06166370649282       -3.44592253266602        0.00574695897291
H            0.03241251287442       -0.50184053098735        2.39558694855105
H            0.70147387503645       -2.12824631743959        2.40789633608991
H           -0.99800905528286       -1.88451696723142        1.98424571108245
H            1.53037084834888       -0.06302967309089       -0.76582417032332
H            7.30650397359743        1.88688077759552        0.42277842142534
H            7.65071330296253        0.29479189174010       -0.25331445540990
H            7.41201084802005        1.68374633928282       -1.33590761111843
H           -1.42864423487022        1.16888352858967        1.82569885964266
H           -1.43174881968900        2.19577115006409        0.38172411018790
H            0.00521033102106        1.23975515179246        0.77415655383337
