43
 energy: -76.174950153376 gnorm: 0.000528109118 xtb: 6.5.1 (579679a)
C           -3.94873781494071       -1.03034216034209        1.72937970116704
N           -2.66633363712306       -0.95117889173615        1.02986395298122
C           -2.42347162339237       -0.13351084652038       -0.04847664002168
C           -3.46480156335123        0.81250799747872       -0.66335688609867
C           -4.81573058131054        0.14388655171185       -0.95159228440480
C           -3.62557913372178        2.05865745270830        0.22072874989595
N           -2.94742239605796        1.26951238400034       -1.94908641295114
N           -1.25850106648663       -0.09236464631535       -0.61286508852726
C           -0.20844088575286       -0.85543926858658       -0.18838252590232
C            1.04961831268024       -0.63324977732172       -0.97671929274605
O            1.07756840220276        0.14545431181559       -1.92293443977298
N            2.12799157761422       -1.34436880675320       -0.59393820226041
C            3.41303512641939       -1.15960065828094       -1.26095783983687
C            4.21524049366937       -0.06858231351277       -0.58302038482382
C            3.87752101192508        1.26990552258579       -0.77922116821665
C            4.58920245084433        2.27790685024944       -0.14559358054644
C            5.64012150986835        1.91982575307863        0.68001172970220
F            6.33492061018605        2.89053579968003        1.29708639957123
C            6.00523427212020        0.60370127617311        0.89426518739014
C            5.27895181464047       -0.39254428673114        0.25482546327599
C           -0.39509720759781       -1.70841352799879        0.85935867516548
O            0.55696316241814       -2.52010028355239        1.36574385842799
C           -1.68430308544799       -1.79597933396343        1.51691872700593
O           -1.87717454633085       -2.56847977698021        2.45448442453038
H           -4.38110902845084       -0.04164993153379        1.84204282195240
H           -4.62977766483165       -1.68108166862086        1.18251273548668
H           -3.76604994844600       -1.45557512441631        2.71583844509882
H           -5.32047496424996        0.71465815368857       -1.73114312798996
H           -5.46068903964844        0.12821630051679       -0.07688868461320
H           -4.67097413381941       -0.87507734623907       -1.30780878890942
H           -4.07459363155999        1.81724467602273        1.18126608639214
H           -2.65244770964701        2.51646467359717        0.39546223960138
H           -4.26436554614330        2.77617893734811       -0.29336341201160
H           -2.83004018239514        0.46555675845097       -2.55485609267127
H           -2.02453784774722        1.67117675196625       -1.80734439722313
H            2.11317547287707       -1.92445035705116        0.22756725984979
H            3.95056113793843       -2.10973663461711       -1.22725626850594
H            3.21664943396666       -0.89381399849522       -2.30480364795581
H            3.05133704413484        1.52605085617148       -1.43284015171038
H            4.33777806897689        3.32104706291176       -0.28795264944667
H            6.83532091011976        0.36469582507974        1.54589507307464
H            5.54876544269735       -1.43049853157576        0.41015978321087
H            0.17069498315387       -3.02714872408997        2.10529065337474
