47
 energy: -79.484272974419 gnorm: 0.000601652766 xtb: 6.5.1 (579679a)
C            4.14978741098921       -1.97230954567325        1.49822171873002
N            2.94628978904001       -1.26021165259219        1.05605580155539
C            2.89430308741978       -0.48903666081593       -0.07845779948046
C            4.10258270002159       -0.28508582814310       -0.98379679353861
C            4.98180687939836        0.82456298447355       -0.38716068283741
C            3.61719944218791        0.14393198866648       -2.37962906908626
N            4.87757760461504       -1.51370887600484       -1.09462173385686
N            1.82039797083196        0.15257355529283       -0.42012196917652
C            0.67169737226597        0.08079191226693        0.31367570423268
C           -0.45529504522094        0.87377532852545       -0.24443226338134
O           -0.42439359766265        1.40106350809834       -1.33998677811161
N           -1.55377323598416        1.00035933981554        0.57789242095786
C           -2.70774166525227        1.67992062998879        0.13675090374010
C           -3.81247919592839        0.63977811589941       -0.47593861559164
C           -3.10363002481196       -0.14874632060193       -1.59387001549142
C           -4.21605214549174       -0.20631161358707        0.65288912539812
C           -5.42910129749717       -0.08136426105036        1.26472524923568
C           -6.34814246431262        0.84015537942169        0.74752028884831
F           -7.51175249901743        0.95744183251821        1.33325047204184
C           -6.08684593551710        1.62726575989892       -0.38084024058253
C           -4.87569341249810        1.50567417681620       -0.99783167065081
C            0.64087416328881       -0.71264071252749        1.42495953208159
O           -0.44273794702406       -0.89992753413536        2.20048708192501
C            1.82774980912543       -1.43990893108101        1.84393420076158
O            1.81554889912456       -2.14985541708622        2.84552381947409
H            4.02721289941538       -2.21977799320766        2.55234696276500
H            5.02489428786175       -1.34458591896198        1.36561942171458
H            4.26769693564499       -2.88525038069716        0.91719021896047
H            4.39400484007491        1.73284756887667       -0.25924415386928
H            5.38454275627245        0.52816324770617        0.57972773095361
H            5.81209587816337        1.03257323375959       -1.06056530928329
H            4.47433237657055        0.24139120775750       -3.04345042746620
H            2.93737133818134       -0.60402877462475       -2.78462112512240
H            3.09601830486227        1.09873526245198       -2.32567696627732
H            5.75862958669254       -1.31670812625606       -1.54846373176075
H            4.37644654023752       -2.18438598156971       -1.66152143730786
H           -1.58116575063475        0.53630583093303        1.47204147618589
H           -2.44693490871701        2.36164249416070       -0.67491715870931
H           -3.18707619138152        2.20468328189088        0.96025040943660
H           -2.31226383670255       -0.75897267471033       -1.16418014916719
H           -2.67647694500334        0.53704096382507       -2.32346595495427
H           -3.82788005191090       -0.79589795912120       -2.08446236703674
H           -3.48729450234305       -0.91745244137297        1.02486492372302
H           -5.70273510876807       -0.68571167526734        2.12067378560078
H           -6.85426756329403        2.29408888663975       -0.75407270634241
H           -4.65561044521323        2.08838254340290       -1.88517354623239
H           -0.19971510210718       -1.51127075399878        2.92617141699363
