42
 energy: -82.948609492044 gnorm: 0.000247871379 xtb: 6.5.1 (579679a)
C            5.26311013376311        2.99330306739594       -0.14723432151589
O            4.21057241486816        2.02993405682090       -0.16224978536196
C            4.31730827147168        1.05203033300396       -1.08387438927240
O            5.24924532952766        0.99828653707300       -1.85799406506006
C            3.19180999383673        0.09831982729680       -1.01354611146780
N            2.26391724052704        0.35379237986714       -0.05686408047611
C            1.26243468812726       -0.44560971489437        0.12926134901634
C            0.27852455159042       -0.16254609773316        1.23884205820893
C            0.45760673126976       -1.19773237707951        2.35832195459197
C            0.47469282900511        1.26382714276068        1.75547379961271
N           -1.08003476975546       -0.30449109610465        0.66427616700021
C           -2.18056021092825       -0.11426911305389        1.38172693567395
O           -2.26395712540203        0.23113364168518        2.53712403802320
C           -3.51677693336747       -0.40704967238449        0.58893274471740
C           -4.26005609750008       -1.51405378051208        1.33890330594906
N           -4.25727825043069        0.80537676806094        0.50911027769099
N           -4.41578327035386        1.11584055951553       -0.73559565926507
C           -3.83731559967669        0.17310750949275       -1.48320813942172
C           -3.79945881856485        0.14036480544741       -2.95167026845917
O           -3.27315419847161       -0.76469072335286       -0.75528031121822
N            1.09032699534526       -1.57671996037860       -0.61803831774692
C            1.93300362328242       -1.95692935642666       -1.64829148852847
O            1.70543105965884       -2.97480372999724       -2.27512256778551
C            3.10933527336402       -1.03332929922323       -1.89324720507815
O            3.90429786248085       -1.29762529348141       -2.79520292220342
H            5.01289842724487        3.71901394228527        0.62426594882691
H            5.33999364056545        3.48906376406406       -1.11893648450594
H            6.21626560895695        2.51053760245224        0.08594999199752
H           -0.22824426611417       -0.98811558966521        3.17667312565011
H            1.47984210755152       -1.15422038277961        2.73122703227201
H            0.25914542501287       -2.19705265669393        1.97642845147743
H            0.28783922372125        1.97762039285778        0.95468620770178
H            1.50210183090662        1.37974587117662        2.09734532976621
H           -0.20146801944325        1.46442113182107        2.58345637200398
H           -1.16603940483489       -0.64092112405700       -0.28027655117932
H           -4.40516627878143       -1.19758313711042        2.36969252890621
H           -3.66867358105871       -2.42550986895949        1.30990530962543
H           -5.22120622201416       -1.68550730341728        0.86035820251665
H           -4.76306902639256        0.45398811766703       -3.35144133591145
H           -3.54635226290427       -0.85775142664513       -3.30117006785020
H           -3.04603061234101        0.84392526760687       -3.31288023812088
H            0.32091768625846       -2.19712001439792       -0.42984082080375
