42
 energy: -82.929659740454 gnorm: 0.000261971418 xtb: 6.5.1 (579679a)
C            6.96421237898317        0.79674788010203        0.46678313676586
O            5.60016761246196        1.10540181098029        0.14232252239390
C            4.75481414986417        0.06526085180500        0.11392945965334
O            5.10513641180871       -1.06901209071875        0.33292329768646
C            3.34886906700400        0.45802432489649       -0.19765347579127
N            2.47558794709635       -0.56290781577360       -0.13959262117157
C            1.18314108568183       -0.30458087875875       -0.35027371529760
C            0.25936878626876       -1.50491279098967       -0.26505529289655
C            0.54260432766148       -2.29540032313590        1.01835764576031
C            0.47772273896669       -2.38126932733810       -1.50857975782355
N           -1.10830952109711       -0.99335763832785       -0.24812316583963
C           -2.19938715229532       -1.76448118361971       -0.17471880330641
O           -2.22762141939334       -2.98409027408071       -0.12231006377718
C           -3.45855883148521       -0.96406090261480       -0.15049846225590
N           -4.70026860411410       -1.48560155954815       -0.09831716566303
N           -5.54337576039442       -0.52403638549186       -0.07085785858458
C           -4.83951103258971        0.72939941985027       -0.10190883027543
C           -5.20967755435387        1.52273879304865       -1.35654079524428
C           -5.09732170212387        1.51541219105453        1.18617928364104
O           -3.46371541443949        0.34266474867479       -0.16096124893057
N            0.65471623546505        0.86347896426712       -0.62652970946628
C            1.46197458167035        1.97019380524447       -0.74826345561534
O            1.01732594652558        3.07502520754086       -1.03875767302208
C            2.90829532414951        1.74014845031338       -0.50571347109725
O            3.67929756709310        2.81470818015877       -0.62150907193527
H            7.40178133473555        0.18099019758032       -0.32153236077768
H            7.48968193172243        1.74512649992511        0.54383538307826
H            7.00566603280862        0.25885317057728        1.41628010963228
H            0.31441400408915       -1.68310856574712        1.88927896153730
H            1.59762477829895       -2.56482208749231        1.03951549222184
H           -0.06061205347226       -3.20072524402579        1.04872046136346
H           -0.13659783907854       -3.27792580337622       -1.45052642596914
H            0.21563880807921       -1.82459266584998       -2.40683054815725
H            1.52704089153062       -2.66778596768334       -1.55970774878656
H           -1.19935736158411        0.01589954107683       -0.32236180985037
H           -4.98871149002485        0.92674092625993       -2.23930203791894
H           -6.27084110252697        1.75598185105059       -1.32826536013630
H           -4.63101987530846        2.44272544841115       -1.38248220587345
H           -6.15517120742974        1.75662059510112        1.24950211122970
H           -4.51075708203271        2.43056356165138        1.17063148122484
H           -4.80749234313889        0.91074327965764        2.04278369576878
H            4.62322440492248        2.62922080535092       -0.47194190649172
