46
 energy: -86.309055420634 gnorm: 0.000824296074 xtb: 6.5.1 (579679a)
C            5.51179857839546        2.59444106392961       -0.06631315706877
C            5.32130165969711        1.15684806690682        0.22297658951054
N            6.21839226437461        0.29035759254338        0.57752249301187
N            5.57473156248870       -0.89862657244822        0.73915927935042
C            4.32423582449557       -0.68741659872849        0.47218988834169
C            3.20529753040858       -1.65855375414787        0.52519682084125
O            3.36830800279565       -2.82563992888314        0.82665106167172
N            2.02140014759735       -1.09062192661414        0.17663771610275
C            0.73223447491951       -1.76675394839722        0.35636418635774
C            0.70101633196849       -3.14205902679952       -0.32640575433304
C            0.48112712719880       -1.92673981011526        1.86263603222444
C           -0.34810345735511       -0.87879279492003       -0.24748124188448
N           -1.35032162560811       -0.60774856805395        0.52468046264901
C           -2.39697264955592        0.17091798046417        0.10295206074704
C           -3.43070587672421        0.29391524702558        1.10552369553770
O           -3.59462676091045       -0.28718858260117        2.12059337171213
O           -4.49804657852750        1.28443712274488        0.72125390996976
C           -5.76457982172670        1.03402614660658        1.39885424657340
C           -4.09186272525112        2.68602141151650        0.75399955849710
C           -2.40585038966410        0.66280941022116       -1.17954880964585
O           -3.36207224193992        1.41594577110162       -1.69810239142890
C           -1.30165097871683        0.33428895444584       -2.08257657382196
O           -1.29982202759539        0.72839345392119       -3.23785009624716
N           -0.28943642824517       -0.43014601429634       -1.54437611086039
C            0.78921910968755       -0.71747559683780       -2.49799886754491
O            4.10007162310670        0.60301280766081        0.13741366346321
H            6.56671414796191        2.84819136218574        0.00981346164843
H            4.93928116891616        3.19314950154319        0.64205420551803
H            5.14860059351349        2.82291528407823       -1.06771505483572
H            1.99221688496225       -0.08535388320031        0.12891792398633
H            1.31635796428965       -3.84819280791019        0.22832739759110
H           -0.32575510490508       -3.50457385557143       -0.33940094753096
H            1.06852580770225       -3.08594545429654       -1.34780111931271
H            0.47318436564306       -0.95069750236521        2.34385196516682
H           -0.47890981646709       -2.41116143311674        2.02935096563581
H            1.27216968489529       -2.53614914505708        2.29711089605721
H           -6.02399768611226       -0.00360070192173        1.20216102285745
H           -6.48906828553056        1.71042792488933        0.95363370500578
H           -5.65048044343512        1.21779273193206        2.46706086915849
H           -4.77589799883769        3.22029872212712        0.09877920233241
H           -4.14801482240291        3.05156781234314        1.77915734313838
H           -3.07626702171511        2.74011678227900        0.37469487921857
H           -3.14592676120689        1.61162176417348       -2.63520205058834
H            1.67991335372492       -1.04927356134214       -1.97767673765259
H            0.99831898616396        0.20104264273474       -3.04589249503365
H            0.44395430756330       -1.47982508973087       -3.19689546603493
