42
 energy: -83.005869523230 gnorm: 0.000315323806 xtb: 6.5.1 (579679a)
C           -5.34326803282203        0.86324168042402        1.93489107996731
O           -4.06644053432767        0.57045501912456        1.35090403294955
C           -3.92522635465903        0.84389980058742        0.06483071132386
O           -4.78956966948038        1.31122388991694       -0.63268255876770
C           -2.54563240835947        0.44723177498871       -0.43430226836355
N           -1.56892302553307        0.32044760271695        0.57949095798280
C           -0.47314997863390       -0.27188898020358        0.31174637503407
C            0.61322126652408       -0.35676359209647        1.36384845115244
C            0.54343384312809       -1.75177170648710        2.00350915685950
C            0.42257475779699        0.74313009035640        2.41225753123477
N            1.89576364947308       -0.17580530140868        0.67660245156258
C            3.08844211493960       -0.24545130192946        1.31049520997323
O            3.25482316240088       -0.56873258709660        2.47352202458327
C            4.22054496457855        0.10814265820058        0.41859785812914
N            5.48433181643663        0.13390234874138        0.70904706347979
N            6.14020925119518        0.52565398137826       -0.41754911460605
C            5.23673266851168        0.71704702390254       -1.32956773021658
C            5.43577305842271        1.15347393778063       -2.73040935252946
O            4.00172205431391        0.47181512907284       -0.86462353632188
N           -0.23545560821779       -0.95221788658232       -0.86514221555035
C           -1.21029377100427       -1.21851841481021       -1.79906115857906
O           -1.09435700640301       -2.11996619126335       -2.60059221018693
C           -2.41528932921416       -0.33077815772454       -1.71467379311348
C           -3.59270546298344       -0.74420051251981       -2.56486633364670
O           -2.12634716013139        1.04096940091760       -1.62547139583625
H           -5.55814255382142        1.92999119127042        1.84516728859457
H           -6.12174319200424        0.29060762817632        1.42713115678773
H           -5.27767218933287        0.57332553280075        2.98081263948590
H            0.74521744246939       -2.51644558542931        1.25585665411196
H            1.27418069393602       -1.83501743574211        2.80546370575193
H           -0.45315033849610       -1.90914108285157        2.41297677928680
H            0.48039589652097        1.72188096551897        1.93865803410585
H            1.19417366554185        0.66563375391195        3.17588682834337
H           -0.55561619776941        0.63289052867782        2.87722993688841
H            1.88133804808500        0.21647953981874       -0.25083229096318
H            4.48577286400821        1.13961543437484       -3.25836389544936
H            6.14088714216058        0.49082184067680       -3.23121288688357
H            5.84455066687541        2.16391262890535       -2.75176113060672
H            0.58975021069658       -1.52999507643319       -0.92614652504430
H           -4.31179122262631        0.06856760521966       -2.63267412226509
H           -4.07228622900494       -1.62193961382589       -2.13530969219223
H           -3.23678297318885       -0.99572756105135       -3.56368371647063
