42
 energy: -83.615618341413 gnorm: 0.000347574587 xtb: 6.5.1 (579679a)
C           -4.44728477082662       -1.92019732494677        2.13341584484630
O           -3.82366235459268       -0.66837773153710        1.88522316294038
C           -2.84218775004329       -0.66793777770057        0.94201452083988
O           -2.50964639745897       -1.69859718028539        0.37205145273796
C           -2.35067159764662        0.72949661441413        0.61222217135198
C           -2.32599873382387        1.64459044013247        1.83886474895904
N           -1.01885867408528        0.65660748258143        0.03502135309557
C           -0.92623845972365        0.31492206310208       -1.19856917387075
C            0.45176910794381        0.05923248118135       -1.80247173152530
C            0.69449635756610        0.99034461786190       -3.00004476544477
C            0.52907713461883       -1.41512758058226       -2.23858134426304
N            1.42932545850902        0.34338962586703       -0.76147805602715
C            2.76942584765041        0.02906133795706       -0.86634324736313
O            3.33124854636959       -0.23494755997615       -1.95047718050090
C            3.42972111043479        0.09255812814031        0.40791110827425
N            2.85669415149021        0.36324105396363        1.58161434841564
N            3.84490613002573        0.28197160329978        2.52421270488869
C            4.93935337783555       -0.02472245265739        1.90843490951718
C            6.27873483179390       -0.23474242117822        2.51167182807831
O            4.77499204146987       -0.16340433519583        0.57150852907689
N           -2.00238523016467        0.13497395364894       -2.00874968590679
C           -3.26980903463104        0.76360310788338       -1.72850027045491
O           -4.02928071103284        0.94612387875521       -2.72677142116119
C           -3.46341195383246        1.15685372430848       -0.39059313955431
O           -4.47883619319861        1.79013624866777        0.06663088893541
H           -3.73289298301957       -2.62711501752803        2.56737678928732
H           -5.25770005494555       -1.74142487032035        2.83855330677677
H           -4.84773694544591       -2.34859905567042        1.20897343082997
H           -3.33676996577513        1.79367030283497        2.21731859082810
H           -1.71022209491943        1.21212780781517        2.62679316783142
H           -1.90905009401740        2.61236346399576        1.55961350494114
H            0.62680026852441        2.03056801722795       -2.68254390189149
H            1.68585403697703        0.81154945664390       -3.41346290796529
H           -0.04410795723721        0.80882412468088       -3.77877934748708
H           -0.23393354119078       -1.62125407124494       -2.98729093163423
H            1.50479473578753       -1.63208097531868       -2.66982681287934
H            0.36486683348487       -2.06589393934053       -1.37968062657451
H            1.04411410567368        0.40184667248379        0.17984823321207
H            6.63582094807702       -1.24239587313041        2.29789544804689
H            6.99864452195137        0.47141279643000        2.09756792300746
H            6.21866553534705       -0.09634121654978        3.58844057796410
H           -1.84861658391545       -0.03630862070936       -2.98901400017265
