4
Coordinates from ORCA-job /lustre/hpc/kemi/ree/PhD/applications/universalRXNpredictor/src/uniRXNpred/ref_calcs/calc_gfn1xtb_alpbDMSO/methyl_anion/xtbopt E -39.927165477763
  C       0.001100      0.000389      0.305633
  H       0.983489     -0.225846     -0.105309
  H      -0.687880     -0.739418     -0.098321
  H      -0.296709      0.964875     -0.102003
4
Coordinates from ORCA-job /lustre/hpc/kemi/ree/PhD/applications/universalRXNpredictor/src/uniRXNpred/ref_calcs/calc_gfn1xtb_alpbDMSO/methyl_anion/xtbopt E -39.927550974720
  C       0.001045      0.000363      0.309181
  H       0.995982     -0.228476     -0.106551
  H      -0.696780     -0.748926     -0.099439
  H      -0.300248      0.977039     -0.103191
4
Coordinates from ORCA-job /lustre/hpc/kemi/ree/PhD/applications/universalRXNpredictor/src/uniRXNpred/ref_calcs/calc_gfn1xtb_alpbDMSO/methyl_anion/xtbopt E -39.927564780312
  C       0.000997      0.000295      0.312301
  H       0.995808     -0.228291     -0.107602
  H      -0.696741     -0.748855     -0.100454
  H      -0.300064      0.976851     -0.104244
4
Coordinates from ORCA-job /lustre/hpc/kemi/ree/PhD/applications/universalRXNpredictor/src/uniRXNpred/ref_calcs/calc_gfn1xtb_alpbDMSO/methyl_anion/xtbopt E -39.927573576077
  C       0.000920      0.000204      0.317231
  H       0.994148     -0.227730     -0.109258
  H      -0.695683     -0.747723     -0.102067
  H      -0.299384      0.975249     -0.105906
4
Coordinates from ORCA-job /lustre/hpc/kemi/ree/PhD/applications/universalRXNpredictor/src/uniRXNpred/ref_calcs/calc_gfn1xtb_alpbDMSO/methyl_anion/xtbopt E -39.927573989591
  C       0.000914      0.000209      0.317937
  H       0.993562     -0.227609     -0.109494
  H      -0.695267     -0.747306     -0.102304
  H      -0.299208      0.974706     -0.106139
4
Coordinates from ORCA-job /lustre/hpc/kemi/ree/PhD/applications/universalRXNpredictor/src/uniRXNpred/ref_calcs/calc_gfn1xtb_alpbDMSO/methyl_anion/xtbopt E -39.927574010800
  C       0.000917      0.000224      0.317963
  H       0.993438     -0.227606     -0.109502
  H      -0.695166     -0.747218     -0.102317
  H      -0.299188      0.974601     -0.106144
