# ORCA input file 
! OPT NumFreq r2SCAN-3c CPCM 

%maxcore 7500.0 
%pal nprocs True end 
%cpcm smd true SMDsolvent "DMSO" end 

*xyz -1 1
C       0.001100    0.000389    0.305633
H       0.983489   -0.225846   -0.105309
H      -0.687880   -0.739418   -0.098321
H      -0.296709    0.964875   -0.102003
*