21
 energy: -31.455987553492 gnorm: 0.000477430240 xtb: 6.5.1 (579679a)
C           -0.96911470981783        0.48715774136145        1.50627076878246
C           -0.26522802383242        0.16516853121506        0.15230838561373
C           -1.36776366405064        0.03202172792829       -0.94591555406196
N           -2.25517404641566       -1.11846067585202       -0.71763800904548
C            0.65323156601904        1.31611410747393       -0.22797569390999
C            2.00758805246209        1.17517742909743       -0.37247041833859
C            2.61735711718736       -0.06589491708753       -0.19402827989752
F            3.99868629081332       -0.17830694177457       -0.35606450277749
C            1.87163600815998       -1.20747707226757        0.10963380134586
C            0.51643824146080       -1.13276153594053        0.26998489939793
H           -1.60015988947992       -0.34303641105500        1.82731203037219
H           -1.58487231706528        1.38409610675483        1.41853621293278
H           -0.21309783101633        0.65967340350944        2.27321516634086
H           -0.86539802637447       -0.11625924576061       -1.90976676532689
H           -1.94956465888616        0.96681762631525       -1.00923933815999
H           -2.81538822687532       -1.25916736954118       -1.54574448260771
H           -2.90094753528877       -0.89541372111518        0.02976401128396
H            0.18279963575152        2.28473600582086       -0.37358474077660
H            2.61981896958527        2.03548938712438       -0.63423145761526
H            2.38246495063483       -2.16290845136221        0.21277797688478
H           -0.06331390297140       -2.02676472484453        0.48685598956301
