43
 energy: -83.124036608965 gnorm: 0.000312049078 xtb: 6.5.1 (579679a)
C           -6.64483735274305        1.89263645905980        1.53305612271604
O           -5.53975449829943        1.54503881909564        0.68987684895052
C           -4.47128220029464        1.03683568178584        1.28987675645785
O           -4.38890017505862        0.86514361177201        2.48316000714287
C           -3.37045153668263        0.68071251693902        0.33652329159209
N           -2.33382275768034        0.01163590519076        0.92726656902998
C           -1.32471835832234       -0.37619846812139        0.22235453911020
C           -0.23158632260126       -1.19627871960307        0.86833144190447
C           -0.45624424337185       -2.67476102971473        0.53728326201557
C           -0.20692960141000       -0.95951352292736        2.38143952507323
N            1.06129905509415       -0.80556729452816        0.29275338814408
C            1.46594731086823        0.47452881656521        0.27032016384324
O            0.82214595395194        1.44163887214632        0.61252030782837
C            2.87229925751083        0.60824208770359       -0.25081570179888
N            3.57628895979423        1.77937041375383       -0.30747854212683
N            4.72563288797190        1.51539889754315       -0.76146060857843
C            4.84218601759029        0.12382032704747       -1.03357512911707
C            5.07282174415487       -0.12142341684718       -2.53039634761682
C            5.92593980545739       -0.52375683572705       -0.16298309075923
O            3.56129902091571       -0.38806407382383       -0.65878192211775
N           -1.23334507973081       -0.14310304950450       -1.11597320069411
C           -2.19282812687703        0.54929460521040       -1.81933094332207
O           -2.10011763445889        0.77912933748036       -3.01228941169464
C           -3.33634960526613        0.97169066458854       -1.00625886051708
O           -4.28987407165446        1.63538810054984       -1.65254830642081
H           -6.97442106326809        1.01670212459710        2.09662308321230
H           -7.43803230806408        2.24209329492229        0.87550612496461
H           -6.35009917992210        2.68153159420438        2.22897014612327
H            0.32504498281879       -3.27799256963899        0.99502768165500
H           -0.43555482205005       -2.82289765099616       -0.54040277194533
H           -1.42381357014421       -2.99376848184906        0.92243272605016
H           -0.05040680280005        0.09689012019477        2.59479253112957
H           -1.16238405856995       -1.26871156331063        2.80285920054748
H            0.59465593359039       -1.54214022808009        2.82877935029975
H            1.69641613375031       -1.53191096419290        0.00998504141461
H            4.28125703588539        0.36099412092898       -3.09926033561601
H            6.03884590055234        0.29219324098639       -2.80999418670306
H            5.05768147947120       -1.19295541482491       -2.71276814272409
H            5.92694608419225       -1.59465736279499       -0.34974640323736
H            6.89078712955305       -0.09737241118214       -0.42677059500963
H            5.70702861602180       -0.33248724713772        0.88520992565686
H           -0.43689914391526       -0.48023476828306       -1.63167464061575
H           -4.05186879595157        1.72288446085118       -2.59413689427576
