47
 energy: -79.490682185521 gnorm: 0.000668369354 xtb: 6.5.1 (579679a)
C           -4.32449399526973       -1.38192196713047       -0.55801566543441
N           -2.94647882226080       -0.88340576980556       -0.51433881064340
C           -2.03700303089561       -1.65959986115965       -1.29267693356836
O           -2.42696037652157       -2.55743043218437       -1.97805495407020
C           -0.56305048167780       -1.37019213279292       -1.04829323856035
C           -0.19024946769877       -2.17347300280832        0.23215581665607
O            0.19846641770418       -1.79183927111069       -2.13281220847052
C           -0.38405895462304        0.08602213939315       -0.76540165003322
C            0.82292642410363        0.93406397301888       -1.11636247853881
O            0.78538996470934        2.14001100568163       -0.94559179229053
N            1.88223219835382        0.26487789372943       -1.58625780727035
C            3.13538037583547        0.95042515698037       -1.88632124567966
C            4.12641386207186        0.74191214144699       -0.76099138547000
C            5.31722896164682        0.05833294122412       -0.98850106906654
C            6.22627110963924       -0.13501116701451        0.04302904353336
C            5.91294472207942        0.36183107857392        1.29503745122476
F            6.78313980703701        0.17623424629923        2.29767345848595
C            4.73560662176419        1.04155659317311        1.55536329575902
C            3.84029626150237        1.22954983610253        0.51314987098416
N           -1.30801914698652        0.69424101625188       -0.10024253267536
C           -2.51551476477594        0.16083358888331        0.18440600400510
C           -3.29703965555893        0.84484632798211        1.28150762509453
C           -2.56949394140749        2.11475288630163        1.74164131993862
C           -3.38589784470703       -0.16122264545966        2.44416303888417
N           -4.63993076384887        1.15605325194358        0.82067381974407
H           -4.98372697801359       -0.65276062913921       -0.09469555237667
H           -4.36180191299258       -2.33291286259017       -0.02904477428550
H           -4.59008540956519       -1.53758969312043       -1.60302037970085
H           -0.40407802186146       -3.22581104753818        0.05945140357027
H            0.87475009088965       -2.04512692236905        0.41189967418289
H           -0.75712592764894       -1.81516722470105        1.08781673144713
H           -0.12515145590961       -2.63829837783327       -2.47680745442030
H            1.86461885163211       -0.73632126978068       -1.68808579715088
H            2.91189031812805        2.01430898231768       -2.01321138864416
H            3.52405427317739        0.54542122663126       -2.82327048237228
H            5.53938985160479       -0.32769644516663       -1.97612816925356
H            7.15532042499682       -0.66560674204982       -0.12009862392302
H            4.52457666780666        1.40989976696663        2.55079356604254
H            2.91004287354483        1.75556209306413        0.69189443294497
H           -2.46130328600316        2.80783744087861        0.90905439558713
H           -3.15159489142521        2.59085382721746        2.52802320736194
H           -1.58200724508647        1.86528801719132        2.12649736311157
H           -2.38811874766763       -0.45735770694446        2.76369097752717
H           -3.89900553967250        0.31341505388071        3.27862098799091
H           -3.94220401634263       -1.04564402673714        2.14237406629829
H           -5.21945486238836        1.39175676128435        1.61328346897254
H           -4.61709153742087        1.94450595102165        0.18884437454818
