13
 energy: -19.065362503514 gnorm: 0.000583343216 xtb: 6.5.1 (579679a)
C            2.01037269299551        0.22949243082550       -0.48661997932783
O            0.66243119023156       -0.29257724852372       -0.68119176935084
B           -0.54073500434197        0.13697715660446        0.05133151123168
C           -1.86580166771339       -0.56003336997112       -0.34650368744203
O           -0.26188774496638        1.08280979998526        0.93970251996248
H            2.31660673731268        0.74639931218863       -1.39522217964231
H            1.95661985548658        0.91890732693340        0.35307419696947
H            2.67158397410892       -0.60628311154253       -0.26296359211348
H            0.59424675924651       -0.94853898880445       -1.38737103331872
H           -2.29534711096174       -0.06977602456185       -1.22116455283034
H           -2.60124645569540       -0.50520281138720        0.45352602673081
H           -1.70926362572648       -1.60498835409539       -0.60620351637043
H           -0.93757959997627        1.47281488234891        1.49441605550146
