42
 energy: -83.004677658911 gnorm: 0.000421301948 xtb: 6.5.1 (579679a)
C            2.75263494350333        2.05855740226249        2.38744540279017
O            2.48798605163179        1.14342363819358        1.31019042481441
C            2.45478900967361        1.65266450977802        0.09441392399182
O            2.65816361471684        2.80193862320625       -0.18452180946080
C            2.13870539998044        0.56398650270685       -0.97092658728487
C            1.92113358196240        1.24077516061015       -2.32475587698768
N            0.92139485030416       -0.09107751645211       -0.54873309796173
C            0.94365615385145       -1.18088959548977        0.09829342144436
C           -0.35196959241728       -1.82445735904999        0.55448585753641
C           -0.51770430330628       -3.18745028834352       -0.13324296697410
C           -0.36142950439202       -1.96229254416140        2.08375056380944
N           -1.42893685476628       -0.92874290542360        0.14305302464787
C           -2.73164313948429       -1.17502501537518        0.37120059690404
O           -3.18053438903071       -2.17547613745244        0.90907695505663
C           -3.61732683130760       -0.08034391109539       -0.10161191187118
N           -4.91009306457495       -0.02615953830156       -0.01736987468473
N           -5.29046242959242        1.16670621649788       -0.55484719224872
C           -4.20631512629174        1.76851074579136       -0.93319656913209
C           -4.08741727436612        3.09885312407489       -1.56850088174708
O           -3.11126674286645        1.03282219510438       -0.67661696652169
N            2.10757541517194       -1.86122912601730        0.42687765664420
C            3.34973453128265       -1.51879420138549       -0.02001450543761
O            4.34624389231964       -2.12486890157552        0.29945438725400
C            3.36360888215451       -0.32930319367262       -0.98676170716832
O            4.31520554907570       -0.11119407862416       -1.68949969196101
H            3.73313383758199        2.51813485701527        2.25041830868650
H            1.98391630880423        2.83242108180583        2.40884022919893
H            2.72827467508035        1.47033030743972        3.30115843073037
H            1.09737204974506        1.94603350792759       -2.24711031058475
H            1.68353229323424        0.49056782105789       -3.07551762109962
H            2.82563002357090        1.77219193120737       -2.61560574730106
H           -1.42938765025376       -3.66806176951809        0.21706513594568
H           -0.57532007269372       -3.05335073422867       -1.21216940746362
H            0.32956610588757       -3.82787652747625        0.10207545755194
H           -1.30983649531388       -2.38859839119450        2.40608740212682
H           -0.23345212783028       -0.98409919830283        2.54398749678382
H            0.44261823882912       -2.61850901063020        2.40886501402062
H           -1.14834438180081       -0.06570508364334       -0.30512882180711
H           -3.59479685136025        3.00808740972713       -2.53601227680283
H           -5.07690258983504        3.52963942640810       -1.70124918635808
H           -3.48412398506520        3.75651129037679       -0.94322838126727
H            2.06238699818324       -2.66864872378286        1.02988170217977
