33
 energy: -57.820770248794 gnorm: 0.000788371171 xtb: 6.5.1 (579679a)
C           -4.13472861368071        1.33069398170696       -0.82112892149801
O           -3.20818447497166        0.47105898705450       -0.11259589826428
C           -1.95379823934575        0.50705243008840       -0.39352199789206
C           -1.91099825270229       -0.66273500426837        1.91787546077416
O           -1.35653571017535        1.14298486560580       -1.19822802368365
C           -1.15236381570192       -0.53508931592193        0.59889202357550
N            0.11870825048547        0.07509046785665        0.77598303569278
C            1.07771226358956       -0.18210733197071       -0.03083906939510
C            2.42979817493938        0.48130324375875        0.12894127784034
C            3.11839676395507       -0.16341729654126        1.33985655416519
C            2.23681252971032        1.98786558022994        0.34668115515817
N            3.20720809871787        0.20358630691807       -1.07117148155205
N            0.99396467644227       -1.10794633375202       -1.04900808493181
C           -0.05603744458694       -1.93289637700900       -1.24575133364013
O           -0.14201876756858       -2.81659032338246       -2.07050657308810
C           -1.17343559128368       -1.68551569191997       -0.28296856004764
O           -2.18152768172782       -2.46967926296370       -0.34306842263246
H           -4.62315178241937        1.95864342455127       -0.07697996104039
H           -4.86049136869191        0.68070831085769       -1.30803039967637
H           -3.59804022987676        1.93482791504294       -1.55235961102847
H           -2.88158060054732       -1.12345456809929        1.75266908685258
H           -2.03791673358126        0.32181983143400        2.36153702656124
H           -1.32225708610194       -1.28420733194877        2.58995661170556
H            3.27871736142298       -1.22474250038888        1.15621249246960
H            2.49660190586653       -0.04502296945255        2.22629952791995
H            4.08002425581213        0.31700388840781        1.51178677153674
H            1.63709702138152        2.15825948361123        1.23999948857477
H            3.20716706024403        2.46601343919321        0.46546855211357
H            1.72629490277484        2.42590674175525       -0.50971536492047
H            3.03981141378240        0.91649481928206       -1.76815444604903
H            4.19383334608430        0.20149033304228       -0.85585573347096
H            1.84168135858656       -1.19656305894256       -1.61458477986861
H           -2.09076399083101       -3.15083668383724       -1.04878540225980
