46
 energy: -87.058728262926 gnorm: 0.000595118773 xtb: 6.5.1 (579679a)
C           -6.37369585476748        1.68257438543934       -0.18423083695763
O           -5.24178940345233        0.86711212913127       -0.48758596803061
C           -4.22503315781146        0.91333368658417        0.40285202639123
O           -4.30070824593743        1.60930675319647        1.39523362970153
C           -3.04655056667754        0.07608545187388        0.04836256377370
C           -3.03061147117283       -0.88635629648256       -0.95920240861320
O           -4.09984583076305       -1.19298582065446       -1.79894982497799
C           -1.90709865207559       -1.77422624384526       -1.07580743990904
O           -1.87752693985534       -2.78110799767369       -1.80736760259827
N           -0.81317614570920       -1.46328786089001       -0.28285668016067
C            0.27376949292064       -2.43800250849203       -0.25631098392203
C           -0.74362729223108       -0.28786943458748        0.59481564904297
C           -0.17789253519521       -0.69884867665855        1.96895367914790
C            0.16594704430934        0.84741813336829       -0.08470931151404
C           -0.30772352550995        1.08846352439985       -1.52330625168620
C            0.04272849928331        2.15852368382051        0.69673327984716
N            1.56344875741769        0.43027222886443       -0.19019334571718
C            2.54648380372309        0.55107600066835        0.72194206164448
O            2.45870939071172        1.04369283166045        1.84010776114555
C            3.80761157071437       -0.03122803954526        0.19354975776636
N            3.94603343341094       -0.64682061683336       -0.94505975294171
N            5.25362064015263       -1.03126794420907       -1.02853731973569
C            5.82752058216001       -0.62694390299542        0.06123560718685
C            7.24565073790510       -0.79739510045478        0.44955436891992
O            4.97013448661502        0.01050442278097        0.87549783536002
N           -2.01314022863067        0.32122934627183        0.85036714386596
H           -6.78793614368044        1.41110334381592        0.79050932132042
H           -7.11091666239960        1.50709314824328       -0.96474037590912
H           -6.08672098111239        2.73737741497025       -0.17028361962233
H           -4.81280735010531       -0.54902707186499       -1.69663663407906
H            0.14530210605067       -3.15482280625340        0.56139580734608
H            0.27672830014154       -2.98451737841209       -1.20174533873317
H            1.23582315599793       -1.94110524112441       -0.14108040869854
H           -0.79480515431873       -1.49999378423395        2.37477712896059
H            0.85234888253437       -1.03845185918330        1.91369554973795
H           -0.23360745022989        0.15115015757999        2.64578395447466
H           -0.20610128603828        0.18327898495343       -2.12102263730059
H            0.28751043703883        1.87682575913561       -1.98239009333867
H           -1.35235126000184        1.39572057317288       -1.52508663796814
H            0.32802022016181        2.04131014374054        1.73924939793930
H            0.67564758753926        2.92183571006367        0.24565278030988
H           -0.99475464750697        2.49020227043685        0.66052786345974
H            1.83473429212527        0.02242027806516       -1.07406250968477
H            7.31484443112501       -1.36852691003325        1.37507122390798
H            7.70678565298751        0.17526420655488        0.61836553265261
H            7.77901728015626       -1.32038707436857       -0.34018694180995
