42
 energy: -82.971624080428 gnorm: 0.000342572577 xtb: 6.5.1 (579679a)
C            6.68299258816393        1.50020354445952        0.86292723142604
O            5.51365223152455        1.44143437495207        0.05514186925684
C            4.49800763721693        0.68996986259782        0.53702404647820
O            4.60221707664515        0.10057547547605        1.60475885524348
C            3.31227026524433        0.65391417085724       -0.31300907325565
N            2.30922928325142       -0.13660931933492        0.20903810201730
C            1.19916255497263       -0.28039940521582       -0.40967124649267
C            0.13064827950844       -1.19778990910043        0.14443484788202
C            0.01523985145669       -2.44255702001045       -0.74456054062223
C            0.45836525496514       -1.56080047599579        1.59370198582741
N           -1.15113193429587       -0.44759073854575        0.10407475577329
C           -2.32871259395440       -0.89823020596435        0.45537646890655
O           -2.43885697676820       -2.11099147507133        0.91706651100612
C           -3.69470856410969       -2.68546427728020        1.30777558640937
C           -3.45556763507714       -0.00938492486784        0.30613732057308
N           -4.71581136740407       -0.20160625969629        0.59124290857618
N           -5.36973030099963        0.92767228110574        0.26053316314783
C           -4.48206763425430        1.76004596348527       -0.21301124378436
C           -4.70702840948646        3.12867996949578       -0.71505145975524
O           -3.25550869417422        1.22373194119494       -0.20670943768395
N            0.94712572658392        0.33187741926611       -1.62315691339038
C            1.85409608472405        1.15077985854970       -2.25916323171488
O            1.55927787185506        1.66152872853753       -3.33230364505170
C            3.17868805211687        1.34263785594331       -1.54922265070864
O            4.03434212373813        2.06556595778919       -2.08305788290780
H            7.39865824887399        2.13502093474900        0.34156894161192
H            6.45212656308542        1.92725774959786        1.84361604761295
H            7.10538369788183        0.50053491389080        1.00345740531825
H            0.99187229503869       -2.92164004265948       -0.80351558858596
H           -0.30187345828695       -2.15792187978343       -1.74569944288549
H           -0.69901501400874       -3.15177624399098       -0.33517482909839
H            1.45782890125359       -1.99406055658481        1.62527803064151
H           -0.25633997766960       -2.27943404577247        1.98514891390118
H            0.44488480563796       -0.66446066053051        2.21160515411904
H           -1.12217324750415        0.50688838410633       -0.23287890849147
H           -4.13117187524054       -2.11030340703491        2.12560594765359
H           -3.46285295492788       -3.69874035866228        1.63020260326388
H           -4.37946298996960       -2.69745454188092        0.45866617261965
H           -5.76272989957223        3.37787408793460       -0.63946619647942
H           -4.38453239164941        3.19768969455595       -1.75435034188077
H           -4.11757473743901        3.83845935687900       -0.13396338838364
H            0.07078226305016        0.18487022255224       -2.09096384809719
