21
 energy: -30.770037205163 gnorm: 0.000633504212 xtb: 6.5.1 (579679a)
C           -2.48722850325457       -1.27015862454651        0.25716255496105
C           -1.39140420889848       -0.41044744545740       -0.42836158629188
C           -0.01803092101606       -0.80881793848892       -0.07532060040156
C            0.94040933245984        0.09252890436277        0.30719850780920
C            2.36520568276596       -0.34625805571771        0.58156773348089
N            3.15175963157594       -0.21698658053029       -0.63606655414668
C            0.60019506530690        1.46150089262307        0.38471866596015
C           -0.67037841030050        1.93467285513543        0.06872545429851
C           -1.63199406207174        1.03023190567483       -0.30256730992732
F           -2.84263998065948        1.43948368552878       -0.57166498794430
H           -2.42798481586958       -1.13357783663656        1.33459435864284
H           -3.46588738319033       -0.95584818653732       -0.09926288924285
H           -2.32752471814366       -2.31747145064127        0.01303108558693
H           -1.49621756756690       -0.64250423281517       -1.50516325176191
H            0.20822961773959       -1.86726193707714       -0.13632322619038
H            2.38105219671398       -1.38960198890101        0.90371357037310
H            2.80736571873977        0.28050825480967        1.35920319216690
H            2.73195570014616       -0.78339941236826       -1.35996769693838
H            3.12963405572875        0.74438929605812       -0.94800261307105
H            1.35310589802158        2.17019910311372        0.71285939760646
H           -0.90962132822719        2.98881679241140        0.13992919503005
