13
 energy: -19.065377810730 gnorm: 0.000500993144 xtb: 6.5.1 (579679a)
C            1.97177954540580       -0.51234939038675        0.06976094741016
O            0.77192193091847        0.25725525507298       -0.23693358443305
B           -0.60176129660635       -0.08386401282045        0.17296671885530
C           -1.71729784224923        0.85611837915100       -0.34916930475323
O           -0.63262467717995       -1.17944194048072        0.92081300834055
H            2.69560995658954        0.15449535963928        0.53474659294782
H            1.66911046547423       -1.29799700154391        0.75768334098486
H            2.35905361294688       -0.93320942551098       -0.85688606726732
H            0.93459812922882        1.02602007700019       -0.79887946848171
H           -2.58728328965254        0.84793105433003        0.30347129237619
H           -2.04510099242474        0.52332253403332       -1.33522878262767
H           -1.37011263861413        1.88139436802999       -0.45282289583928
H           -1.44789390383730       -1.53967625651446        1.27047720248777
