42
 energy: -83.632839443656 gnorm: 0.000990193285 xtb: 6.5.1 (579679a)
C            4.76438772739360        3.03551441484055        1.12117478777002
O            3.89579482571781        1.96929406444324        0.76111362882696
C            4.48302459561079        0.76969718284883        0.55563310714929
O            5.68508270294512        0.62576940079742        0.67846220253644
C            3.51350492959616       -0.27961360210826        0.18337118502536
N            2.19982064687275        0.08946902384710        0.11808023660673
C            1.30990616040022       -0.83067163641008       -0.21095449929483
C           -0.14261536733490       -0.33930981230700       -0.27858268014396
C           -0.20653619828383        0.70046933112953       -1.41793225104011
C           -0.45763475305238        0.35553504654478        1.06159710980297
N           -1.01572044159053       -1.50261953710790       -0.45422216621027
C           -2.38160097628443       -1.27659063269675       -1.10690073248386
C           -3.08021424099200       -2.68385911388235       -0.95934017595609
O           -2.36267404707614       -0.82501186961372       -2.32270152991641
C           -3.17917262355829       -0.38980536145673       -0.08360812584582
N           -3.51465042760385       -0.70554860153599        1.13297362754610
N           -4.30636318460644        0.31999510278637        1.61390850750312
C           -4.40373035402679        1.17819199249050        0.65428682022054
C           -5.14987753040234        2.46065237031969        0.66366984588912
O           -3.72344776649186        0.79516800564512       -0.44166357781261
N            1.56248186428012       -2.10731152492796       -0.49917618561556
C            2.83661809303761       -2.55089828391000       -0.45165977881975
O            3.18535977935155       -3.72908558845467       -0.69422363312603
C            3.86622814382062       -1.57740840271166       -0.08930771039957
O            5.13278425852013       -2.06176978597063       -0.05344398899356
H            5.26868087389100        2.81771128595879        2.06721604635616
H            4.14869774935099        3.92716319899820        1.22669096999378
H            5.52013027247399        3.19436767128159        0.34656781709176
H           -1.17921610565624        1.18942802699688       -1.45113985539261
H            0.56214092074684        1.45639793459912       -1.24786713101487
H           -0.02658881941455        0.22212617977063       -2.38024909731787
H           -0.57086596737863       -0.39267502175091        1.84742135460998
H            0.35688303412784        1.02959541688660        1.32874893726014
H           -1.37587439628116        0.93679136530668        0.99786522306919
H           -0.53415336967115       -2.14166682913871       -1.09475793743821
H           -4.11917995898508       -2.59392012824100       -1.27191934182980
H           -3.03571269974443       -3.04023911752707        0.06902777021426
H           -2.57548679298047       -3.39021145124838       -1.61609193143819
H           -5.81092726015902        2.51782064291525       -0.19899402634353
H           -5.73707496958389        2.53213752689664        1.57489862855894
H           -4.46076735841261        3.30359082208192        0.61860375136164
H            5.05855703143489       -3.00867070638919       -0.29657420096005
