46
 energy: -86.304732251159 gnorm: 0.000626407970 xtb: 6.5.1 (579679a)
C           -6.43164606179215        1.42718943837767        0.43660464028404
O           -5.29346032149455        0.62514938176731        0.05073133622214
C           -4.13366063559756        0.94700742051489        0.60772079564981
O           -3.96743421492273        1.84681019933240        1.38265970926411
C           -3.00758286587588        0.04422805323754        0.14970959064923
C           -3.11100516049522       -0.91427981321529       -0.88441386757559
O           -4.17377196126670       -1.15283079257316       -1.57373598942807
C           -1.94261055933587       -1.77758893431260       -1.20782707749354
O           -1.99397959360805       -2.67440159152532       -2.02210938451499
N           -0.82018342225341       -1.49913816743909       -0.47190599295428
C            0.30460980658819       -2.40819272744684       -0.68287507460589
C           -0.70830249234254       -0.42818330864438        0.47159893342399
C           -0.02301938586075       -0.88604629682315        1.76259905421163
C            0.17188117921982        0.83210343050770       -0.22719406751811
C           -0.34437542723622        1.01454958600118       -1.64800420758133
C           -0.04670345215531        2.09172529568355        0.60193860848089
N            1.53238343176108        0.43737371101106       -0.29366315486108
C            2.49285732083384        0.61707719566238        0.68029018536873
O            2.29420993527110        1.08986510207972        1.77547012467235
C            3.79376173262521        0.13096490841080        0.19260757402004
N            4.01513159215198       -0.42141160446382       -0.96623983196341
N            5.33081546286588       -0.73900002661523       -1.00300902417813
C            5.83807603853271       -0.36460370138096        0.13848335202692
C            7.23921872642819       -0.49259449875750        0.58813792714682
O            4.91369441198641        0.19087242101169        0.93158401788069
N           -1.88309271283668        0.21710567981264        0.79146613856251
H           -6.28376182950523        2.45159458623203        0.09208041602141
H           -7.29737439721495        0.97873102801262       -0.04261045525074
H           -6.53504029921763        1.40998703191927        1.52267742241298
H           -4.95585752878259       -0.61241181926752       -1.32655830513950
H            0.21137124113378       -3.25627479061084       -0.00308870026889
H            0.26663963726445       -2.76051069271480       -1.71303847949399
H            1.23991790538800       -1.89111662844743       -0.49635441487113
H           -0.61331239548486       -1.69818366480615        2.18326556282139
H            0.98622662672861       -1.23620555907375        1.57240583067761
H            0.00885372725530       -0.06277151699410        2.47227761797921
H           -0.09267401002564        0.16042669569290       -2.27322922361953
H            0.12341168616889        1.90458256664156       -2.06810620158552
H           -1.42285879670166        1.15873481332072       -1.65539516644464
H            0.05803220066464        1.91191518161923        1.66840544464602
H            0.68712291513770        2.83828673512101        0.30084980616020
H           -1.04985967671040        2.47044889683689        0.41261204396326
H            1.85892293059313        0.03961600665286       -1.16443189788158
H            7.82194890442792       -1.01058827837968       -0.16934828719962
H            7.27862169850613       -1.04614825564800        1.52599665551684
H            7.66385608917775        0.49613330368198        0.76384901636992
