47
 energy: -79.450470940197 gnorm: 0.000521508178 xtb: 6.5.1 (579679a)
C            6.35488092811643        2.06115242451388       -1.58124951472845
F            6.12652758888834        0.63910327636439       -1.60529769222920
C            5.14620570406119       -0.12615456856050       -0.82323159741371
C            4.04804923915003       -0.57591758737406       -1.50980719426782
C            3.14203976654900       -1.33107879911551       -0.77444580350531
C            3.36189538015071       -1.58931699154079        0.57926952098055
C            2.34468730640639       -2.38511349362608        1.36936262427223
N            1.17399322255800       -1.56761458749557        1.65025556243990
C            0.16460703217543       -1.50133227644681        0.75081474727832
O            0.14912306290375       -2.19095192305851       -0.26105008918028
C           -0.94853597936530       -0.55455880722989        1.07568974238583
N           -1.97030204902954       -0.57669001966154        0.16955788243010
C           -3.00408726534620        0.19677754716086        0.27784734851965
C           -4.04480713093294        0.07229569724082       -0.82854530898344
C           -3.77817842763991        1.16018260037547       -1.87997716966445
C           -3.91165023862208       -1.31082348941530       -1.48944361566636
N           -5.39099076035968        0.23329014631842       -0.29088231599038
N           -3.12278203748788        1.10599593369346        1.29997582204930
C           -4.25385942233736        2.02802742779538        1.43848222021249
C           -2.16153583255556        1.19010710328170        2.28775924420251
O           -2.23797267878618        1.97416030350000        3.23234494520215
C           -1.02680428603505        0.29733848446059        2.13845710354718
O           -0.09428794878086        0.39970282098623        3.10769070051748
C            4.50400650639853       -1.09464459017957        1.20609521592692
C            5.43447664942563       -0.33954748559597        0.49879025658644
H            7.04496966523291        2.22317056558690       -2.40347142062936
H            6.78501750997800        2.28007727393571       -0.60894420157623
H            5.38531799755774        2.52482518055298       -1.73529242415536
H            3.90103672279974       -0.35997923780176       -2.55846330048913
H            2.25570204519299       -1.71836232845001       -1.26400806729719
H            2.77075642964142       -2.71208085217551        2.31941264112042
H            2.02063574963166       -3.25725831878298        0.79287913712293
H            1.26040436780424       -0.88886282092719        2.38883813108715
H           -3.91117755560887        2.15560121276902       -1.46023069480632
H           -4.46963454827030        1.03956807037226       -2.71273972572537
H           -2.75848980896386        1.07087708456361       -2.25266301051607
H           -2.92715448747101       -1.42293745625332       -1.94183747117134
H           -4.04781779810318       -2.09528229974723       -0.74627884604520
H           -4.67305897186071       -1.41604581168220       -2.26023343730761
H           -5.64792081279761       -0.59547988625658        0.23027990103799
H           -6.04338620749463        0.32863841726240       -1.05674368690462
H           -4.53559116106285        2.42376493826574        0.46832599579305
H           -5.10336168116708        1.50440049530133        1.87424558353342
H           -3.94708902726144        2.84243650693766        2.09450025084938
H           -0.37254161286446        1.09898632344768        3.73174945012835
H            4.68201261197517       -1.29349863078559        2.25551954612621
H            6.32666924352401        0.05305342741485        0.96438901478104
