42
 energy: -83.591214806183 gnorm: 0.000505640024 xtb: 6.5.1 (579679a)
C           -2.02646994197766       -3.09894376437896        1.96138161719744
O           -1.64026681532193       -1.92082223783044        1.29161455402530
C           -2.61972894057336       -0.89627842670002        1.28426149091535
O           -3.70239394329773       -1.12617533050070        1.85548679527029
C           -2.19366611334263        0.25869216908436        0.60183220857144
C           -3.04181429556707        1.46036841655783        0.43573851636532
O           -4.21074540614536        1.56135199655267        0.92235244621731
C           -2.44702332267924        2.47993300609877       -0.31316366637512
O           -3.04203446893714        3.69611585050927       -0.65143990175758
C           -3.46802862029003        4.50239443192085        0.43893897314999
N           -1.13162870589212        2.36722248764445       -0.80599728630402
C           -0.42808974993718        1.20696825023902       -0.61312966926891
C            0.97141643350291        1.13977767017938       -1.20977719153766
C            0.88905522614945        1.28998043295770       -2.73904854884880
C            1.84258320233922        2.25886166783890       -0.60792864005244
N            1.51092898321575       -0.16829836461016       -0.87228378379226
C            2.80893653866194       -0.54414956036018       -1.14162918047029
O            3.56548243706503        0.10753466176015       -1.89924371883327
C            3.21017654852873       -1.77408794455525       -0.51990045203616
N            4.38985312084025       -2.39069729414159       -0.62711918918611
N            4.31248885404535       -3.51315226915176        0.14966804040889
C            3.13336290804412       -3.53860540876918        0.68103975035392
C            2.59477200400365       -4.56769465254106        1.60483237815498
O            2.36649721512073       -2.48226484825036        0.31649359138534
N           -0.90544855298876        0.21459855637419        0.04678074162023
H           -2.91209880790757       -3.55572483222028        1.49894885430381
H           -1.19213007634049       -3.80042222251898        1.89908115978087
H           -2.25272651739277       -2.90730406708255        3.01895816719759
H           -3.85091038213613        5.43340523111682        0.01631923646447
H           -4.26600090145519        4.00982241703445        1.01004841371536
H           -2.63408281226208        4.73397574650389        1.11444052258379
H           -0.77450274598991        3.12724792756097       -1.35441377388200
H            1.88476959767533        1.24520511018988       -3.17792095549320
H            0.43883203030242        2.24703428237081       -2.99682421608553
H            0.28003510338623        0.48904918464130       -3.15874849552050
H            2.84023567428074        2.24093818551644       -1.04451639680252
H            1.92352019819221        2.12812070288870        0.47094655566335
H            1.39327937690123        3.22938874561629       -0.81043473064522
H            1.00734451810708       -0.66195719533486       -0.13885272317231
H            2.32454697082517       -4.11841410782467        2.56099846269113
H            3.34994975076309       -5.33213540130350        1.77047759884624
H            1.70172242848079       -5.03085720305332        1.18404744517099
