16
 energy: -33.398779338996 gnorm: 0.000652998658 xtb: 6.5.1 (579679a)
C            3.53436636377035       -0.42851949106024        0.81890637566099
Cl           1.77539994821052       -0.14227037160283        0.92222063232472
C            1.24126162293806       -0.22165034485482       -0.83690386166086
O            2.05833514399535       -0.44332299102301       -1.65839090066790
C           -0.16307114983243        0.01447248894573       -0.92626007817731
N           -0.90753555438354        0.03865659724291       -2.00707566055997
N           -2.15234932865998        0.29493985237055       -1.61417802880683
C           -2.13452888565092        0.41891793689042       -0.30519608273878
C           -3.27088591086085        0.69436935638171        0.58957990566392
O           -0.90543382813922        0.25137517974559        0.17759796975346
H            4.03939814998339        0.45750875619322        1.19253868526046
H            3.79268771999709       -0.60822028225934       -0.22396042736011
H            3.76464933008648       -1.29897605767112        1.42620922573287
H           -3.73710650439706       -0.24872254664770        0.88366625650137
H           -4.01304360018484        1.30050511784054        0.07289770116392
H           -2.92214451687325        1.19849979950742        1.48834728790952
