42
 energy: -82.946527624043 gnorm: 0.000273357882 xtb: 6.5.1 (579679a)
C           -7.06269465462144        0.52528825287882       -0.68136326790171
O           -5.82467832139925        0.60849143437121        0.02512746114298
C           -4.77403980970055        0.02136439409831       -0.55008889736202
O           -4.84425294576891       -0.54765540806874       -1.62084566018726
C           -3.51959346186892        0.11491064008470        0.24069429916147
N           -2.49038336311282       -0.55957010683768       -0.31249011555817
C           -1.33117715505553       -0.60790417991149        0.27673873417637
C           -0.21195996084869       -1.41661446344416       -0.33382913335605
C           -0.46121103531152       -1.62877797292004       -1.83026109477943
C           -0.10027289397525       -2.75558684840105        0.40276442835155
N            1.04536417665099       -0.69252226018840       -0.13907402557168
C            1.16497314028654        0.60590511846186       -0.49388256693973
O            0.25022271262500        1.30308494428402       -0.89984883692290
C            2.54343949423584        1.11994540416622       -0.32790292969779
N            2.94430270470470        2.36943039575436       -0.61006222393372
N            4.20597514452136        2.45121526503759       -0.39860417697886
C            4.69870331229798        1.17337957455295        0.04127835870756
C            5.69579861309077        0.60979722208309       -0.97457847888329
C            5.29300147656030        1.27675681433686        1.44714927629071
O            3.52975120554103        0.34785907046172        0.06998637383926
N           -1.10463424423505       -0.01413363070290        1.47623314810628
C           -2.04211085925623        0.74427088151045        2.15406338773217
O           -1.75891373085291        1.26170785777660        3.21678084731563
C           -3.39417146904523        0.84860491201712        1.47485538114636
O           -4.27727482907652        1.52534640900739        1.99710896892209
H           -7.32263744986259       -0.52021696683464       -0.86452043079269
H           -6.98830637311927        1.04896792643511       -1.63770015122995
H           -7.81542426216382        0.99589572953830       -0.05181706409626
H           -0.54588785265286       -0.66747482092767       -2.33550790862529
H           -1.38905639639556       -2.18274751575797       -1.96485964044266
H            0.36267985010467       -2.19196388325218       -2.26178266990849
H            0.71313254862262       -3.34081804135358       -0.02054511822918
H           -1.03006764598981       -3.31232553698531        0.29697845719649
H            0.09582269502142       -2.58779605002326        1.45988670511650
H            1.86444964506189       -1.21066544224784        0.12591217560163
H            5.21708705806866        0.54174416027996       -1.94920515879718
H            6.00987613549482       -0.38015793352620       -0.65394666106135
H            6.55792957591832        1.26940610179305       -1.03359026435212
H            5.58616392655898        0.28547417687798        1.78330555233820
H            6.16281135639046        1.92853824936230        1.42037736423475
H            4.54833076213844        1.68578403822078        2.12660067895460
H           -0.20106781958256       -0.11302491203345        1.91046687726100
