47
 energy: -79.476181307468 gnorm: 0.000544623503 xtb: 6.5.1 (579679a)
C            4.05507851982460        2.00406763448066        0.29036004322433
C            4.86483578962661        0.71423929935679        0.63201250425262
C            6.10593409926218        0.67742278331574       -0.16331743374573
C            6.37343880175002       -0.38305994161405       -0.97205687465887
F            7.48664647365617       -0.39442806007137       -1.69342773255949
C            5.50752447318737       -1.48099107232822       -1.08674054706017
C            4.34513275769662       -1.52200842417237       -0.32304494569373
C            4.01426383010195       -0.49068055998793        0.53366341601572
C            2.76723904880675       -0.56664609156169        1.35004958987282
N            1.62543773122133       -0.26379714311695        0.48620799992028
C            0.38891185679436       -0.29811751895473        1.04906952661578
O            0.24077232882637       -0.46470367776618        2.24746215195988
C           -0.75555626939279       -0.08331104549351        0.11084717402892
N           -1.97824585789723       -0.13860930580280        0.71320279922656
C           -3.08176043695181        0.02278130235404        0.05265753081597
C           -4.36886869713211       -0.13387131849523        0.85452109915298
C           -4.03057642820384       -0.14851262857907        2.35543309318984
C           -5.04909349379377       -1.45550322240152        0.47137878176755
N           -5.27547324147760        0.97209678006657        0.58133233768379
N           -3.08140916388245        0.26106495924330       -1.29725574510258
C           -4.28303553725388        0.44049309511665       -2.11766370574308
C           -1.89916537519944        0.32224517133428       -2.00903836401918
O           -1.86850085279996        0.51500451096452       -3.22153748731195
C           -0.68575046765920        0.14262499578500       -1.23335412657839
O            0.45935135294214        0.21318370310937       -1.94066922582678
H            4.69587480363994        2.87221328974051        0.42484160689335
H            3.71828883441479        1.95170756286801       -0.74197595557382
H            3.19501671186692        2.08088616969881        0.95035550323045
H            5.14601791147648        0.84869667518532        1.69014699417710
H            6.78058545368651        1.52248830208738       -0.10419006177209
H            5.75849924660795       -2.28956637797912       -1.76288597377764
H            3.69421400562415       -2.38527502996918       -0.40011804421506
H            2.64479192651279       -1.57790931896202        1.75774707244825
H            2.77545718794946        0.14300198270575        2.18210171218411
H            1.75854636407116       -0.29700080078078       -0.51054283041390
H           -3.40615858302440       -1.00890999669928        2.59154333058469
H           -4.95249910248731       -0.20431508468479        2.93115166452913
H           -3.49519873166930        0.75947887199605        2.62712390803935
H           -5.38283048618068       -1.43617707900231       -0.56386592060063
H           -4.35271187996694       -2.28284851611149        0.60225580962859
H           -5.91451919687554       -1.61853912595300        1.11207629323659
H           -4.89968745841188        1.84297770272780        0.92632411582916
H           -6.17437240353066        0.80378720723217        1.00758762941516
H           -4.51107039994210       -0.49499978662304       -2.62898100832584
H           -4.07223986287097        1.21132773798276       -2.85920669976688
H           -5.11761726193947        0.74595191408438       -1.49298686126728
H            0.23448267899743        0.35203947567861       -2.88231214390986
