42
 energy: -82.875647246493 gnorm: 0.000270947323 xtb: 6.5.1 (579679a)
C           -6.44333502281258       -0.45449183578603       -0.65518654278925
O           -5.05454900904653       -0.34596578831547       -0.31736436086487
C           -4.74506452148371       -0.45371298231430        0.96075491647465
O           -5.56720438338533       -0.62327457309961        1.84328466345379
C           -3.28691873223466       -0.35175394445782        1.24152387742768
N           -2.45328710004865       -0.11340524742978        0.22527858122321
C           -1.13924116468463       -0.08452053594702        0.48964282478309
C           -0.23100003170477        0.21103805973368       -0.68126736562667
C           -0.26551944292010        1.73949166830508       -0.92351610689522
C           -0.70221246888494       -0.52497971819030       -1.94619344832915
N            1.09487230732080       -0.19095596212219       -0.31713965510833
C            2.24175501081373       -0.12325672833764       -1.18132584108429
C            2.66792218560581       -1.66774454797048       -1.36314103956032
O            2.11895783518940        0.46093036082418       -2.30895763968962
C            3.38845872190431        0.38387177515306       -0.28132220639320
N            3.27662514231456        0.95289182248652        0.87159248289093
N            4.55334559157795        1.24488251269327        1.27203955567383
C            5.34773884865869        0.82096626865058        0.34203093872844
C            6.82395370876989        0.89919034970219        0.29979895536040
O            4.66530574179113        0.25954491425389       -0.67499209142396
N           -0.57880459384361       -0.28654743076767        1.65540240184173
C           -1.34104845432432       -0.50472406170691        2.77959262053270
O           -0.85681706217149       -0.62720236673797        3.89455041304908
C           -2.80817534146175       -0.54916889477342        2.53874405008317
O           -3.58458884403008       -0.73941523503365        3.58367923717418
H           -6.81625774251869       -1.44042702531073       -0.37046709630155
H           -7.01497288457162        0.31511349948908       -0.13276202920092
H           -6.51114259209973       -0.31729069812995       -1.73207253613891
H            0.36431550128943        1.99451670165060       -1.77295742629936
H            0.09250860057819        2.25660065766496       -0.03491181147345
H           -1.29086640031949        2.03819027558558       -1.13030898364256
H           -1.73437688844652       -0.24203068062652       -2.14405361720265
H           -0.65036436533810       -1.60000421448339       -1.78640486228440
H           -0.08248566014113       -0.25481453865878       -2.79830177588006
H            1.21439760553353       -0.55341446709100        0.62486299985414
H            3.58696668648575       -1.65883817744424       -1.94010192825384
H            2.81324822186847       -2.13608902293345       -0.39646352206524
H            1.86794982069974       -2.14746511249173       -1.91624618353117
H            7.14352180239833        1.47319042680514       -0.56986343382604
H            7.19001282532261        1.37551050538818        1.20607028368668
H            7.24610322801050       -0.10204053020240        0.21589949258617
H           -4.53972867966033       -0.70892647802837        3.33057220904152
