39
 energy: -79.831315840637 gnorm: 0.000654038664 xtb: 6.5.1 (579679a)
C           -5.85508419268675        1.31666869870931       -0.74877458157901
O           -4.54861280973162        0.89327061779793       -0.34403847684756
C           -4.44816775479609       -0.33266015785214        0.14716986947970
O           -5.39829125152661       -1.08884148202719        0.25347656655497
C           -3.07575666179816       -0.70339538203487        0.56300365638796
N           -2.09072711446361        0.23410013702842        0.37758097582833
C           -0.88606934772676       -0.04954348825956        0.73570766171023
C            0.21198891125472        0.98034055898068        0.58517188438128
C           -0.21307245929656        2.06416660620429       -0.40998479197933
C            0.49399574770501        1.57834498366349        1.97216958516347
N            1.40103814209933        0.28214880523002        0.08371293352252
C            2.58678129954473        0.90246108652785       -0.12097162853593
O            2.85685777808852        2.04313823331222        0.20492358486926
C            3.54484818910576       -0.00915800402530       -0.79629853346772
N            3.28547114662824       -1.20500817234018       -1.23364299703363
N            4.43390120539308       -1.67554869245902       -1.79456338185875
C            5.32105642686320       -0.73544561540586       -1.66503675014321
C            6.73193082486697       -0.75355212845162       -2.10921353539983
O            4.81899597873072        0.34207215188811       -1.04403868896983
N           -0.55875719018916       -1.24488550475477        1.30770161029974
C           -1.45464794778715       -2.27317035530200        1.54008489645031
O           -1.09205635411388       -3.31750111288169        2.05010980117193
C           -2.81818396785411       -1.93606420787443        1.11297674931751
O           -3.74181445472506       -2.87744707677019        1.30444209501835
H           -5.74557088467955        2.32230694502035       -1.14908449664280
H           -6.24699599070488        0.64163469295500       -1.51278042961752
H           -6.52787995938554        1.32008029337412        0.11164583253668
H           -0.39769297557743        1.62009481494490       -1.38686500053428
H           -1.12875158245852        2.53750195879907       -0.05933141210612
H            0.56946261565747        2.81539038633763       -0.49776680820675
H           -0.43048716344320        1.98101686993004        2.38320722566004
H            0.87453608536778        0.80718099757850        2.63946393261855
H            1.22693857821143        2.37877507759313        1.89622327314424
H            1.27400777634270       -0.62229703125221       -0.34550717059411
H            6.92884814012503        0.10109960122740       -2.75585544000012
H            7.39405480396921       -0.68273034937315       -1.24600015113133
H            6.93544474863834       -1.67584644452145       -2.64763555025282
H            0.39309504392981       -1.41295202675920        1.59839996991933
H           -4.62463337957789       -2.56133228475606        1.00021972086656
