42
 energy: -83.577649012482 gnorm: 0.000177563994 xtb: 6.5.1 (579679a)
C           -0.96003052587187        2.58369299594407       -0.18048271952476
O           -2.08945454270127        1.84591288183938       -0.64183267695438
C           -2.81068484769955        1.14575931639908        0.32981707532693
O           -3.92616861584026        1.84660270358276        0.82576695194460
C           -4.95291729656951        2.08027354359286       -0.13030642800476
C           -2.38813032084074       -0.06911567749040        0.84990410800817
N           -1.17314633865000       -0.54956125457776        0.37299055924460
C           -0.77815775720396       -1.72847173291263        0.81322371215098
C            0.56525836351375       -2.21763131628327        0.25042310484515
C            0.30089520999646       -2.97540029876823       -1.06231714573540
C            1.27558277356351       -3.12364631329934        1.26225094246158
N            1.36416141864600       -1.02498821985500       -0.01630962441322
C            2.62050828738544       -1.00588682777555       -0.52086612428422
O            3.31046391961409       -2.01359527493341       -0.74297019560081
C            3.08360081784226        0.36101968912563       -0.74204075765157
N            2.39261095464922        1.46694733084439       -0.53155210932536
N            3.21331369508558        2.51040236091640       -0.85657676698927
C            4.33888807984970        2.00083077081682       -1.23955139782926
C            5.54899336750190        2.73337454861033       -1.68297312587345
O            4.34039508072002        0.65166296003121       -1.19896136899593
N           -1.39055254953067       -2.54736382016407        1.64625363444742
C           -2.60360309272863       -2.14028543731648        2.20001084465092
O           -3.20041498065160       -2.89930972517718        3.01636763277262
C           -3.08455028515373       -0.86502521944402        1.79316551987409
O           -4.30495067775234       -0.43753520439381        2.34317557461221
H           -0.63787939335970        3.23108960480864       -0.99991784233110
H           -1.21484186385140        3.20551191741504        0.68684259799181
H           -0.13352958204617        1.91046694254228        0.08937725183126
H           -5.71750195745452        2.68916847349161        0.35411107427759
H           -4.56234083882747        2.62178717506758       -1.00009824567086
H           -5.40267156822730        1.13774328971244       -0.46972756373070
H           -0.33916804105443       -3.83485141163610       -0.86274060371550
H           -0.20254769926419       -2.31834175558022       -1.77205517130394
H            1.23438746362168       -3.32480515854306       -1.50297852983821
H            2.18175368725283       -3.55173381519893        0.83610238850549
H            1.53779504802153       -2.55357875317454        2.15406765216805
H            0.60097300301899       -3.93041211097625        1.55170921029343
H            0.84198633103761       -0.15080042383513        0.01472209911727
H            6.39765000669146        2.47911153361339       -1.04821813350873
H            5.36579503909213        3.80355662448892       -1.62759095548461
H            5.80250144637797        2.46310481829614       -2.70797934689442
H           -4.44427021818869        0.49432227020981        2.11437489914542
