42
 energy: -82.941980179771 gnorm: 0.000639875341 xtb: 6.5.1 (579679a)
C           -6.82339231326605       -0.75594546524600        0.02074958448926
O           -5.49972067019951       -0.62184903567442        0.54124480584999
C           -4.55110342765470       -0.26300708375678       -0.32597762266099
O           -4.77792417521338       -0.04858695035318       -1.49676382528856
C           -3.19754380309834       -0.15495369725689        0.29016924578263
N           -2.21374280083227        0.20248876097380       -0.57320615064625
C           -0.98056084874741        0.31123241666643       -0.10505870095118
C            0.07031134062172        0.72326139910969       -1.12486420432115
C            0.08424579715450       -0.26879472148611       -2.29110632552028
C           -0.22442086707416        2.14622542539104       -1.61156947301547
N            1.35758373688808        0.68691467636249       -0.41996478662556
C            2.51279892075774        0.99721571518925       -0.95716675532222
O            2.76119333932160        1.36933747828751       -2.07934799432718
C            3.73688683843799        0.81159817686981        0.07795614078878
C            4.82913884252358        1.80855337651047       -0.28320010407708
N            3.27259873619963        0.91386368769370        1.40677893790375
N            3.36230527205426       -0.24074674938661        1.97635206802017
C            3.90516817816925       -1.09840690874580        1.09637350565809
C            4.19622958991035       -2.51561047626118        1.34609141940639
O            4.16856773498431       -0.52985537452121       -0.04542924350369
N           -0.58059893216662        0.11590628980943        1.13984376618113
C           -1.50083732787058       -0.24032073612758        2.07837897217942
O           -1.23904260604284       -0.44413883688331        3.26890495418999
C           -2.88933680463983       -0.38538800784834        1.61376788469172
O           -3.76919587553246       -0.74232896255790        2.55368003828605
H           -7.46978877457394       -0.98575597574361        0.86548086194702
H           -6.85876512341998       -1.56541000611334       -0.71264792860134
H           -7.13909373050815        0.17559293530810       -0.45572562756509
H            0.36678984563161       -1.25818066620055       -1.93551778231836
H            0.79175784206224        0.05185145719709       -3.05386021732562
H           -0.91440657143486       -0.31814069630905       -2.72364417953670
H           -1.22945185405167        2.17272322629775       -2.03090827810237
H            0.49114110915702        2.44209043579792       -2.37672671762668
H           -0.16739641788144        2.84595368225849       -0.77906687057775
H            1.28743580106638        0.42093725598979        0.56332621167670
H            4.46077353145768        2.81602172863343       -0.10540059913680
H            5.70509926627952        1.62040229369259        0.33226947568918
H            5.08022222963350        1.68942347753381       -1.33518875491640
H            4.23708014505776       -3.06553346115438        0.40846928645996
H            3.45204732466190       -2.94185788981411        2.01631995761000
H            5.17114072763823       -2.59423983342947        1.83277047302410
H           -3.27419422547511       -0.84098336070351        3.39341255212825
