42
 energy: -83.575153801709 gnorm: 0.000436829644 xtb: 6.5.1 (579679a)
C            4.91253402677230        3.08981706017356       -0.65057553678009
O            4.04860439186602        1.97625232588406       -0.48973500360564
C            4.31466510682528        1.17611406320400        0.58264709951431
O            5.25636105640439        1.44155215978037        1.34319006590375
C            3.42419771503312        0.04076382865762        0.72247175780463
N            2.42932450767134       -0.11666612906340       -0.20969781002558
C            1.63820910000244       -1.16116397617904       -0.06649574246103
C            0.53186168468060       -1.35811100816460       -1.10835982976897
C            0.61000765602576       -0.25562984940947       -2.17748203662506
C            0.73950332226290       -2.74267962837330       -1.74578481517215
N           -0.74345381070427       -1.32435770355096       -0.37750889578859
C           -1.96340287730353       -1.23716434676520       -1.14767392113303
O           -2.06496758819264       -1.81530136418759       -2.28350311338631
C           -2.98746589240839       -0.57380309785029       -0.51469085824398
N           -4.29410518195651       -0.34436286734295       -0.97824955562953
N           -4.83882657163136        0.40332098801136       -0.03075991333176
C           -6.20182898508895        0.84777119009218       -0.18709063160612
C           -4.03860612239887        0.67789532538503        0.97986935956894
C           -4.34100860318161        1.47474679545292        2.19428968794964
O           -2.82322084418525        0.08426935132996        0.78010982750814
N            1.70272685965894       -2.09050643673218        0.88565713000051
C            2.66104699643771       -2.01071507644715        1.85556424088356
O            2.74724199970065       -2.87176917700820        2.76153715394510
C            3.56595420421998       -0.87210495415421        1.76029666651365
O            4.54082105913715       -0.75666548216666        2.71180336855861
H            4.56408634968908        3.64426189370589       -1.52129060291610
H            5.94424779849395        2.76095589591727       -0.81148361765215
H            4.88456787835679        3.73496646311657        0.23330719670752
H           -0.13592822673379       -0.41800745911341       -2.95515191752278
H            1.60034483175441       -0.25535906864704       -2.63356078443983
H            0.44293774332660        0.72048410745597       -1.72100662979908
H            1.72057382399275       -2.78581082356742       -2.22106339563160
H            0.69195894753962       -3.50993637311472       -0.97061650849540
H           -0.02226940022344       -2.94789924640913       -2.49692418701020
H           -0.72225970931703       -0.57994813433119        0.31562516173524
H           -6.59680608114979        0.40746018094219       -1.09979699327709
H           -6.79602916269731        0.52859147658377        0.66789251308694
H           -6.23165684726035        1.93462775506063       -0.25778676199408
H           -5.00142788772952        0.93311716781143        2.87654200100392
H           -4.83411953870278        2.41062484662234        1.92976393302211
H           -3.41242877793964        1.69839910442199        2.71657892390914
H            5.07803704895657        0.04197222297363        2.52652897467528
