42
 energy: -83.587464385177 gnorm: 0.000316413336 xtb: 6.5.1 (579679a)
C           -1.12094036670589        1.53922268177468       -2.95226511855352
O           -1.11209409268508        1.15138654147238       -1.59468393824573
C           -2.30483994037237        0.59104309275626       -1.12514796361768
O           -3.23924495683396        0.44523182055443       -1.91820348986858
C           -2.24922111949827        0.27744748729707        0.25893389243844
C           -3.30354071873413       -0.32902760241669        0.97759869577998
O           -4.40480339852608       -0.70323214850867        0.50801587116129
C           -3.00745471055768       -0.60286638897774        2.44711190981072
O           -3.89680717309648       -0.73351151823343        3.31526130091997
N           -1.70672809188609       -0.77306309428642        2.75906431680137
C           -0.59303495285857       -0.28605776126011        1.98150845157742
C            0.24465719871418       -1.44034831111950        1.39084728678553
C           -0.58377680223766       -2.59409963982754        0.77832849561634
C            1.14818207021130       -1.99526719901612        2.50727931252356
N            1.07749379465980       -0.83367787673167        0.34659560926927
C            2.01360608593485       -1.46296169621395       -0.37311931269212
O            2.34408340412129       -2.64958078468331       -0.24552545143380
C            2.67588503810498       -0.60459733786606       -1.37724813003804
N            3.59654483723274       -0.96869267596589       -2.23532582246556
N            3.92378986119608        0.14572142221157       -2.95734995407525
C            3.19386404236746        1.11443429738973       -2.50398076726774
C            3.18873417951217        2.52304365705967       -2.96144196901934
O            2.37975478242946        0.71741856576474       -1.50797964228079
N           -1.02719893702831        0.64873664087732        0.95914203002919
C           -1.11714168762259        2.01203620652647        1.51066934122977
H           -0.13066201432344        1.93531072586502       -3.18249667285332
H           -1.33223571538331        0.68871120321610       -3.61311535265415
H           -1.87129968199342        2.31736528474410       -3.13889259505381
H           -1.51745280849459       -0.98667949505543        3.72599476647617
H            0.06652389189321       -3.39397109637936        0.42357397550517
H           -1.24944504868482       -2.99950733950770        1.54055936603882
H           -1.18192305482028       -2.22557904347000       -0.05625016354860
H            1.80990105632125       -2.78082818819677        2.14238064610808
H            1.74851362595540       -1.18510395644315        2.92066727602580
H            0.52573405244923       -2.40419738402793        3.30236684582971
H            0.84158734781124        0.13171896989908        0.12301849717911
H            3.92543490042206        2.65047153195239       -3.75001088051884
H            3.42681689620356        3.18868236047173       -2.13256647438532
H            2.20330241692456        2.79427269028570       -3.34045545310423
H           -0.18037561891990        2.23455566045959        2.02404124848147
H           -1.94703590363543        2.12033714816547        2.22491184557411
H           -1.25715568759121        2.72570554948766        0.69550217050745
