46
 energy: -87.005583945304 gnorm: 0.000349270751 xtb: 6.5.1 (579679a)
C           -6.32723285361656       -1.77972208425057        2.13839361710818
O           -5.46175162565344       -1.48740282622952        1.05247264131155
C           -4.33770656195284       -0.77082950916040        1.37016171524509
O           -4.12267760129956       -0.42562628662576        2.53374036442226
C           -3.48238062503990       -0.47925969352035        0.24226470329173
N           -2.35335476538423        0.25298292726529        0.54923792117976
C           -1.49293349403064        0.60929260502647       -0.34330879241640
C           -0.32717660976849        1.46932417052005        0.15002884012269
C           -0.31779428601613        1.45304251017993        1.69008611808428
C           -0.54476993070068        2.91048677831229       -0.34333747535114
N            0.92219327431434        0.90836584932113       -0.37373410770721
C            2.17160982143474        1.46433240052856        0.05997457372754
O            2.26915358031330        2.64615972307811        0.48065296558634
C            3.21909495677425        0.56445467878378       -0.11526424679825
N            3.14713962348788       -0.73826193150733       -0.57525463002728
N            4.41439140101520       -1.15653997370064       -0.54351224449840
C            4.73106893291258       -2.49828468163376       -0.97359886640742
C            5.25082490546503       -0.24389326353536       -0.10708251490305
C            6.71995449066949       -0.35312251150057        0.04811175548604
O            4.57910233345488        0.88276974017174        0.18976401655224
N           -1.64603708637784        0.27947865848142       -1.67607763687047
C           -0.76227009962653        0.67092633634548       -2.77016255518398
C           -2.76616580429309       -0.45926398027028       -2.10124682341626
O           -2.91208896034786       -0.74197701616289       -3.30936190784289
C           -3.68520864304792       -0.84277639769607       -1.09554543583647
O           -4.76870335932214       -1.56376957082077       -1.52135861119532
H           -5.80961109971557       -2.36858132593459        2.90327859526752
H           -7.16202993215159       -2.35351226033886        1.73660551883545
H           -6.70133047401757       -0.85860777423068        2.59836016710872
H           -1.25372063626945        1.85826298323588        2.07328136814924
H           -0.20471110926817        0.43174054046321        2.05297757184989
H            0.50749198699494        2.05796002742177        2.06198002393386
H           -0.40605392390695        2.98033155611402       -1.42020312727517
H           -1.55952180839901        3.22597295137721       -0.10011569116423
H            0.15787801073252        3.58750542775174        0.13936142031891
H            0.93445147103309       -0.10381183935395       -0.30397392271573
H            5.17569976228581       -3.05128949521776       -0.14741093418873
H            5.43607213510057       -2.45904216641814       -1.80258608028915
H            3.80810399219059       -2.97748724791755       -1.29063735230139
H            7.20859843917041       -0.41531735308115       -0.92573231312780
H            6.98099700931896       -1.24894662740817        0.61138601224741
H            7.09092187540324        0.52466501303539        0.57312585410054
H            0.17868818897839        1.06071068296651       -2.39404590140817
H           -0.56548647371214       -0.20788862378403       -3.38725960194041
H           -1.25862786709759        1.42322324366482       -3.38764938128612
H           -4.67409456003420       -1.67677136374173       -2.48333360977647
