47
 energy: -79.544453224380 gnorm: 0.000288367248 xtb: 6.5.1 (579679a)
C           -3.34453771834520       -0.33929480501312       -4.13326940350619
N           -2.28166318956724       -0.01716727027196       -3.18119284484027
C           -0.99476877917636        0.10480847836603       -3.67116212477263
O           -0.71240647667184       -0.03532173042585       -4.85619898806497
C            0.00981653187925        0.41326709042971       -2.66772104145259
O            1.27219362820121        0.50648354488794       -3.13289990266429
C           -0.33096792282910        0.57296803803215       -1.35610207141683
C            0.61044860664934        0.86763733681216       -0.22815569209761
O            0.29626164796730        0.64758405939814        0.94286614571740
N            1.78871254044771        1.40294225452937       -0.57225101372692
C            2.80387636426710        1.70141992291856        0.43511832157842
C            3.72413836107027        0.51404086030299        0.61842285853696
C            4.96545492675814        0.47695040388630       -0.01112606061005
C            5.80080071814492       -0.62181963608263        0.13974567493108
C            5.36485892403408       -1.67348330958355        0.92491103889684
F            6.16597349383284       -2.74003018346927        1.07568325168298
C            4.13663288830655       -1.67064729259261        1.56197057402359
C            3.31579212828432       -0.56409579573993        1.40128119325383
N           -1.64001339327760        0.41799255185576       -0.97715272620316
C           -2.55401806137333        0.13851482468342       -1.85137290526628
C           -3.96328065808634       -0.02308716969121       -1.38483948708168
C           -2.48678977713298       -0.26587769214228        2.75194205990313
C           -2.35354352656262        1.05565657752258        2.12548227033471
C           -1.30829052808075       -1.14606180755445        2.87145660516982
N           -3.64065529579217       -0.67320371096347        3.17093657568570
H           -3.77698406374680       -1.30723270863767       -3.88328887286649
H           -2.90630512072218       -0.37604198162750       -5.12998666705345
H           -4.11502044494589        0.42889220445054       -4.09519867562484
H            1.26485302751547        0.33331991181285       -4.09437809650334
H            2.03968798347456        1.53226400723248       -1.53916332652905
H            3.36202676460788        2.57859883922036        0.10035949392991
H            2.28860707064893        1.93451107460651        1.37129516234721
H            5.28702466083567        1.31225860438143       -0.62190402528965
H            6.76916881422258       -0.66276216052973       -0.34191154729966
H            3.83203937802173       -2.51390442906206        2.16766023290663
H            2.34743949855402       -0.53717173433178        1.88605478594753
H           -4.34326416159731       -1.01367976123699       -1.63420447961351
H           -4.61295023570825        0.71830584941339       -1.85034879405348
H           -3.99447737892075        0.10695947682838       -0.30602261218908
H           -3.24716262062529        1.66395060284855        2.24020700971018
H           -2.15893209872882        0.88953738447046        1.05474082525927
H           -1.47463527050414        1.57484242365105        2.50702614408756
H           -0.75955288334729       -1.14817273171624        1.92782601616912
H           -0.63432371281485       -0.72765618442297        3.62204764350190
H           -1.58028264236061       -2.15905734936837        3.15787826721212
H           -4.46059858782275       -0.09275709900582        3.11173444641442
H           -3.77038540887276       -1.58518077894772        3.57581876120188
