46
 energy: -86.351493527802 gnorm: 0.000696038790 xtb: 6.5.1 (579679a)
C            4.45009535797804       -1.15160446466036        4.05441864024985
O            3.74909591455487       -0.87414070933686        2.83712446732121
C            4.39215982687110       -0.12563353029416        1.94060166495266
O            5.50451167262637        0.31168184843301        2.11554856378167
C            3.57215396459832        0.10501565717709        0.71456739505802
N            2.31320010678755       -0.43286899091850        0.71263085300672
C            1.51753916221786       -0.29530025427311       -0.29405432283261
C            0.16375782763143       -0.98164232302688       -0.16609060514219
C            0.05169196650721       -2.14109487492261       -1.16439158595969
C           -0.01447081164103       -1.49725698908143        1.26737870301277
N           -0.87877122835916        0.04481649638672       -0.39079574887071
C           -2.16847629632018       -0.16511460606823       -0.51546549314916
O           -2.62198498552302       -1.37729305658503       -0.51240249841831
C           -4.01362661211197       -1.70441234578640       -0.68188551695906
C           -2.97140202265040        1.02481485508799       -0.65570486489882
N           -2.48840581851647        2.23928483376110       -0.63306458968662
N           -3.52537380923579        3.07588818585715       -0.79402571093372
C           -4.59883420747222        2.33736365638832       -0.90902085033326
C           -5.98964683742683        2.78583533513278       -1.10445538739069
O           -4.30535716350631        1.03411266072344       -0.82734399406212
N            1.88257018520732        0.39039358589523       -1.42495115195995
C            1.06433798336111        0.56572569338460       -2.62609615797321
C            3.13902563153357        0.96817725042121       -1.53113486634646
O            3.49020400168570        1.57446585692669       -2.53458805932735
C            4.00991296456592        0.80778106183448       -0.37400407170556
O            5.21452081548939        1.36899758019553       -0.47630350470013
H            3.77996875110940       -1.74938245912038        4.66843506529281
H            5.36673327212710       -1.70691237291323        3.84055720962812
H            4.70139449585074       -0.21799434575896        4.56382286821806
H            0.99503488419825       -2.68639310609788       -1.17158135480570
H           -0.74007826236163       -2.82428399997478       -0.86722523244186
H           -0.15757251133454       -1.78464615678081       -2.16886652283205
H            0.09629140373421       -0.67872962554323        1.97620156636702
H           -1.00197490543122       -1.93872760873909        1.37701501316002
H            0.74294743410959       -2.25102619862555        1.47471559989097
H           -0.59853364251294        1.01762664546474       -0.33276526975556
H           -4.35895133956555       -1.35579355485073       -1.65504103714503
H           -4.60248284192999       -1.24853854720670        0.11380546642873
H           -4.06225921830476       -2.79000433352930       -0.62230627620017
H           -6.37870945473001        2.38191577479813       -2.03958307329540
H           -6.61444573579419        2.40948906334074       -0.29410706433333
H           -6.02799531269575        3.87250191856061       -1.12793023257393
H            1.45647151451148       -0.07664355175842       -3.41464909703615
H            1.14834708199530        1.60653443135262       -2.93932789134294
H            0.02836663985810        0.32607281300221       -2.42869158265627
H            5.28902215831076        1.80694280172267       -1.34448146130795
