42
 energy: -82.914489498575 gnorm: 0.000567986777 xtb: 6.5.1 (579679a)
C           -6.62760219830354       -1.56700580218341       -0.02675261536695
O           -5.45804450021132       -1.05088607274135        0.59548616874379
C           -4.49446370740941       -0.59825647238249       -0.24299305139638
O           -4.64934544961114       -0.64608913039667       -1.45726490036833
C           -3.31144706284712       -0.06445273432436        0.41916077998689
N           -2.36444279108482        0.39778060822923       -0.47661352778355
C           -1.27162736977701        0.91261092385700       -0.05840122972789
C           -0.27474950114182        1.49464812656040       -1.03754255139910
C           -0.47373650338456        3.01114741544774       -1.12773238566069
C           -0.43117930533030        0.83722421564663       -2.41026324355583
N            1.09509249335481        1.27526037653985       -0.53276695789298
C            1.60407658459535        0.06612175962156       -0.28631818313933
O            1.03668260504361       -1.00642582853394       -0.38007615181140
C            3.02832660107661        0.16694902467452        0.16313072364136
N            3.73974394455715        1.20933657361023        0.37984236877104
N            4.98717049213150        0.81753876942909        0.78071039463574
C            5.03473906446374       -0.45911568341377        0.80671051879151
C            6.15492214279659       -1.34239496923106        1.16539151722602
O            3.79180397914171       -0.97463587371902        0.41614063471644
C            3.35247440483516       -2.36504111257011        0.28714580436545
N           -0.98944069246250        1.04999414642004        1.28530990636941
C           -1.82082308511929        0.60720932431101        2.28402112586856
O           -1.48263107900143        0.73654400000947        3.45708975664221
C           -3.12665343075442       -0.00788149111080        1.82641574923307
O           -3.92575078119150       -0.40844695855393        2.69065211751994
H           -7.11001185599898       -0.79915088641348       -0.63971781069368
H           -6.38087493921028       -2.42252205711255       -0.66314992327905
H           -7.30140612502475       -1.88113192688220        0.76968382012111
H           -0.34821141368920        3.46449285895885       -0.14579984914848
H           -1.47840399536591        3.22463735553355       -1.49037853791788
H            0.25000420999268        3.44621696913889       -1.81431635263597
H           -0.26688826852135       -0.23629493023944       -2.33536842034116
H           -1.44466503314461        1.01187243588725       -2.77069625663776
H            0.28263061873863        1.26182154272882       -3.11287384059403
H            1.70203278027836        2.07385425360382       -0.45623700579961
H            7.01239493771935       -0.72449974278824        1.42590041895039
H            5.88948028663979       -1.97322455122271        2.01430837427367
H            6.41493331616944       -1.98856049712840        0.32671450471836
H            2.54653186943666       -2.52106784754329        1.00196795526513
H            4.21486981278796       -2.98515472103223        0.50806114711992
H            3.00985616837717       -2.50226538390597       -0.73619758071583
H           -0.11536822356209        1.45924499321518        1.56422258890910
