16
 energy: -33.418024611457 gnorm: 0.000457409584 xtb: 6.5.1 (579679a)
C            2.26719782188930        0.98134555509263       -0.04348093796856
O            2.54668472061231       -0.39713541128121        0.26142483252846
C            1.67538233983882       -1.30439435115918        0.48968784341102
Cl           2.27349656691276       -2.82374647984172        0.82006144432760
C            0.26797411808375       -1.10741499241687        0.48018757264786
N           -0.64940230367363       -2.02916257333590        0.70738795483727
N           -1.83119098056547       -1.44455040811021        0.60821785368977
C           -1.61803951608896       -0.17331192709239        0.32120027804518
C           -2.62703001030912        0.87342030566991        0.10303775947482
O           -0.31991688462234        0.08611500027516        0.23051709265774
H            1.67238529270357        1.04020458515625       -0.95432386392017
H            1.72682622837243        1.43553121210405        0.78650747527781
H            3.24075739532548        1.44761606302883       -0.17988746096398
H           -3.58794594342568        0.55233766823222        0.49947231508706
H           -2.72818509936834        1.06014212546424       -0.96835336484681
H           -2.30899374568484        1.80300262821417        0.57285020571493
