42
 energy: -82.971651588228 gnorm: 0.000341547627 xtb: 6.5.1 (579679a)
C            6.75349949995803       -1.20647990431027       -2.03447998991364
O            5.39393505992033       -0.80451627899194       -2.23357931173271
C            4.55240239357537       -1.06178927671914       -1.21046514485826
O            4.93158373343855       -1.61066884694534       -0.19808280157175
C            3.16518578337636       -0.60291412039461       -1.44345147057880
N            2.34639414145357       -0.81107861810249       -0.36013133534713
C            1.10944496958415       -0.40537716307464       -0.46747584830989
C            0.21334738738110       -0.63606789172286        0.74683460320311
C           -0.04516065150207       -2.13435876576173        0.93189931252196
C            0.84574048099296       -0.01679446727558        1.99496873559489
N           -1.03634842558031        0.04880984615712        0.40975436017598
C           -2.10227465353048        0.21232869920483        1.12560217267966
O           -2.15281353797881       -0.31005601323844        2.32176888030602
C           -3.28948506891586       -0.18546642819778        3.18745861332572
C           -3.16297656504926        0.99062557146918        0.51557237889371
N           -3.10277770843553        1.49296609739318       -0.68525452688140
N           -4.25423960142966        2.16594358627000       -0.88689360394239
C           -4.96022012445619        2.04503776146428        0.20066968465334
C           -6.29290597328872        2.61189980263045        0.48313761871934
O           -4.32165396351939        1.30981527517833        1.12318318762264
N            0.53172419000585        0.18840145610663       -1.50637870281999
C            1.26167254828975        0.42271260507167       -2.63910700906424
O            0.77312803058269        0.96752421763327       -3.63477634800474
C            2.67167471100235       -0.01326367241330       -2.58312397498930
O            3.37982549754959        0.22364168802237       -3.70879104995666
H            7.15593546853314       -0.73293716131041       -1.13552393815952
H            7.31062597351100       -0.88350061927898       -2.91075928076774
H            6.81237509161896       -2.29240422782834       -1.92800651550114
H            0.91322642663715       -2.63810517808352        1.05246261868275
H           -0.55272514893771       -2.53714924360475        0.05655805495224
H           -0.65797787899171       -2.31293119641989        1.81254493829404
H            0.27519847867885       -0.26331643291922        2.88712208775120
H            1.85679079457256       -0.41162785899504        2.09382864370759
H            0.89561641475339        1.06599365530750        1.89108645207480
H           -0.97355076589375        0.43247228139563       -0.56236582318597
H           -3.03134083548249       -0.74214754032228        4.08645375562082
H           -3.46578563290952        0.86309481213479        3.42831302411579
H           -4.17280107812782       -0.61573942939005        2.71497890845020
H           -6.66424273014076        3.13487984808906       -0.39501126032878
H           -6.22784284550676        3.30474368420990        1.32230471371426
H           -6.98382426813148        1.81641013590958        0.76063654065824
H            4.30161738240209       -0.06861068834393       -3.63403234980072
