47
 energy: -79.493349782633 gnorm: 0.000401332459 xtb: 6.5.1 (579679a)
C           -3.65340774690522        1.58462751175585       -1.79705252695262
N           -2.55675372486359        1.03931497637141       -0.99169005290399
C           -2.58462352177452       -0.14678717901470       -0.37898042934995
C           -3.81575689352810       -0.94735288479512       -0.07067941939864
C           -3.54788667957943       -1.82619537571805        1.16669512943099
C           -4.09002653104237       -1.84130601282412       -1.29681597035216
N           -4.95372969045268       -0.08208010836900        0.15659843426296
N           -1.42039448320394       -0.77648803335581       -0.12306642601233
C           -0.27669551702877       -0.18262146152822       -0.09703409917979
C            0.95628274799394       -1.06400047258874        0.01155120375590
O            0.92986169105564       -2.05341570080971        0.71924744215092
N            1.99017719514598       -0.67139086815819       -0.73731726211220
C            3.25300530631482       -1.39505737011507       -0.72294849410763
C            4.32164988273539       -0.64706268924117        0.04611327868137
C            4.01469777334743        0.43274091193930        0.86815028365090
C            5.01569476730103        1.09287591729208        1.56794111250267
C            6.31753673228937        0.64836396453483        1.43032492378058
F            7.29064936146969        1.28120754782843        2.10239619267191
C            6.65677074070711       -0.42295454501759        0.62243859135407
C            5.64540871872125       -1.06913679084290       -0.07255431446649
C           -0.27210701488760        1.30836013252516       -0.04937847339154
O            0.96095348525918        1.84348438925530       -0.40729046908020
C           -1.37397264383310        1.82380780255875       -0.97306311341849
C           -0.68083112791502        1.78282422028257        1.37534847550200
O           -1.30437373090018        2.87009834464169       -1.54688863218037
H           -4.59830326419759        1.22804493680432       -1.39161314200264
H           -3.59689029031313        2.67083368122180       -1.75735608346981
H           -3.52751383832488        1.24363886428788       -2.82402482679498
H           -3.30658251163180       -1.19805113688736        2.02213127811764
H           -2.72309400582601       -2.51248292166244        0.98124343884809
H           -4.44697389863343       -2.39693237417681        1.38826792635005
H           -4.92798383320817       -2.49685891224983       -1.06739001839553
H           -4.34308126992913       -1.22706529844161       -2.15854826914498
H           -3.21314410202799       -2.44415365579988       -1.52669492407531
H           -4.84439018312401        0.42466777568537        1.02315258216936
H           -5.79894195413853       -0.63290133257672        0.20667907744138
H            1.94030405293319        0.18139865444012       -1.26851811139130
H            3.57355243736829       -1.54965729284164       -1.75715636899409
H            3.07172490939351       -2.37322312066025       -0.26385078476215
H            2.99055447640091        0.77286164504993        0.95942466302630
H            4.78812626616084        1.93735341277831        2.20482862335611
H            7.68829247201469       -0.73958354765098        0.53625699526659
H            5.88786469159656       -1.90784461079847       -0.71485416840830
H            0.85644377882387        2.74868569456238       -0.73963306090398
H           -1.61386389611031        1.31600962795707        1.67979396365132
H           -0.79388866931463        2.86446859632279        1.36497555567932
H            0.11565953565932        1.50893308803092        2.06398126959376
