42
 energy: -83.650086150412 gnorm: 0.000619648768 xtb: 6.5.1 (579679a)
C            6.25496719621298        2.13534432231277        0.51066033623575
O            5.06651052830143        1.84387283154910       -0.20515041932335
C            4.22115508720553        0.95413135187438        0.38802360041861
O            4.50816425201369        0.46696778696004        1.47827071246399
C            3.01829343520095        0.65842794215141       -0.36803579405573
N            2.18961006977788       -0.25000640844370        0.27630933181717
C            1.08667899506437       -0.61269146749082       -0.26576941404356
C            0.18454894926950       -1.66981254435193        0.34457026334352
C            0.47006602745055       -1.81117487732002        1.84749652677316
C            0.54028619459259       -3.00025948931837       -0.35171927765210
N           -1.20739056885848       -1.37184960161691       -0.01362620598539
C           -1.96993008427987       -0.39786358168941        0.90836050699124
C           -1.32790255593678        1.01763558071313        0.75985560136596
O           -2.12858384739172       -0.81402681544426        2.13130173820861
C           -3.34849039089471       -0.32486654908445        0.15796667042650
N           -4.01060582203385       -1.30970523095419       -0.36537816568358
N           -5.22699434625057       -0.80325303079873       -0.78489488077571
C           -5.21886968714652        0.45046765182358       -0.48044596058674
C           -6.29136397996564        1.44699170325287       -0.72089300328176
O           -4.06887686090004        0.82206291136866        0.11687178260333
N            0.69172530635783       -0.13659734103403       -1.49882579276563
C            1.40530897630022        0.75262282129669       -2.24505615251505
O            0.97813954388605        1.12605492867621       -3.34045909684781
C            2.71070261808196        1.21515629089800       -1.63664880747195
O            3.40940074037602        2.03007615341145       -2.27587846087547
H            6.02600311599149        2.53322317245710        1.50480655175902
H            6.80194968838644        2.88134304319216       -0.06481155703544
H            6.87079828691880        1.23736126976544        0.62686717400414
H            0.35555641913573       -0.85921242016995        2.36394242576916
H            1.49591460710948       -2.15796238756035        1.98297481329308
H           -0.21380099162320       -2.53221390747767        2.29209227303585
H           -0.04025915028886       -3.81646924557226        0.07626641786019
H            0.32067833286407       -2.93620991460726       -1.41732092771405
H            1.60015503490578       -3.22076924464618       -0.22471966364378
H           -1.73141499418036       -2.24395326242707        0.06683442952765
H           -0.33328090809764        1.02131169174633        1.20234464205955
H           -1.95027235519256        1.72875844231743        1.30104437475733
H           -1.26578238793868        1.31557861530608       -0.28585692298822
H           -6.60388504229300        1.89987316816599        0.21963818834728
H           -7.14375057521496        0.95825640175336       -1.18599849425612
H           -5.93072122701731        2.24085804600014       -1.37503677075039
H           -0.19444062990125       -0.46747880698295       -1.86073459281240
