43
 energy: -83.168240822889 gnorm: 0.000472910268 xtb: 6.5.1 (579679a)
C           -2.10036099220638        4.18879777282513       -0.03001110245712
O           -1.89685782743321        2.79823977621525        0.28959830513104
C           -2.92646191044044        1.98256762612695        0.16823106594012
O           -4.02561310768723        2.29116843643302       -0.19795761793238
C           -2.57646233036978        0.56657478555856        0.59998569048549
C           -3.34778604365892       -0.06221652341543        1.52820850436346
O           -4.40262968565877        0.51625085525121        2.08530666530480
C           -3.01272962895904       -1.41131419081728        1.97411649262088
O           -3.64784267706455       -2.05256021260512        2.77532818548324
N           -1.85199480795193       -1.90448685103102        1.38387655960374
C           -1.09264187314337       -1.28363192676401        0.46899743920611
C            0.10475046201715       -2.06064532643034       -0.06428627900291
C           -0.33335910642443       -2.73516911565783       -1.37691901204592
C            0.58877598345175       -3.12785282798947        0.92946287051179
N            1.20327954321290       -1.11492348115468       -0.25611390077972
C            2.35494485228609       -1.45588652791851       -0.91225214089346
O            2.50832447166966       -2.45009199051266       -1.59004719386136
C            3.41228114136828       -0.44012047513505       -0.72963431896669
N            4.61838205673189       -0.45866282157022       -1.20410472981572
N            5.23888729400714        0.66016689337868       -0.74576121266031
C            4.37568831588418        1.29751729434259       -0.01679694232866
C            4.56939410838818        2.57107097264681        0.70827664552263
O            3.19604417775969        0.65480466349068        0.03382926672810
N           -1.47051005256607       -0.08416724522353        0.04945412806533
C           -0.77879118167744        0.63170426958462       -1.03302675630507
H           -1.11848361578426        4.59635270092168       -0.25907971128194
H           -2.76775173780068        4.27900111219128       -0.88899499794097
H           -2.53043456811071        4.69527292891499        0.83590453691420
H           -4.81493061411420       -0.07319473458818        2.74180925331953
H           -1.58628277989009       -2.82466330022997        1.71109763071809
H           -0.46710676050834       -2.00649278665394       -2.17264837958587
H           -1.27503350868758       -3.25465615540088       -1.20803447291418
H            0.41886042404910       -3.45917880002726       -1.68363715912742
H            0.76694364345485       -2.68766491494202        1.90824366143159
H            1.52521181811450       -3.53764728120075        0.55258268512339
H           -0.12595926745000       -3.94436228203841        1.01283303855043
H            1.28831004743489       -0.39928656422356        0.44791080155889
H            4.25064221511105        2.45908718032086        1.74372958903153
H            5.61789515668005        2.85905293758837        0.67124603597432
H            3.96280458164624        3.35345739694569        0.25237636599394
H           -0.24037576981881       -0.07042116857762       -1.65679191543381
H           -0.08660488799415        1.34775931638202       -0.59496854273403
H           -1.52441555786809        1.15044958499483       -1.63093503151616
