33
 energy: -57.853891446734 gnorm: 0.000821714516 xtb: 6.5.1 (579679a)
C            3.30920743606530        2.84391615968362       -0.06698655206700
O            2.15547978072101        1.98398189430506       -0.01224847680956
C            2.29440011926697        0.71661090607598       -0.13973196894200
O            3.48713858249604        0.25284704762189       -0.31400010357903
C            1.10625406251806       -0.10401077914240       -0.08548295257413
N           -0.06082119465106        0.59720894276136        0.08810606295230
C           -1.17162622294518       -0.06201667705844        0.14348876955930
C           -2.49734794686942        0.64726478713943        0.29523185527334
C           -2.89546690237024        1.18612064208291       -1.08647886527311
C           -2.36550614476522        1.79212247690815        1.30830945144116
N           -3.47998525892964       -0.34116954695495        0.72054146817771
N           -1.21610056026649       -1.41279437882836        0.01428131697195
C           -0.13466566856761       -2.23569176309420       -0.16188296534869
O           -0.26093953859857       -3.44042389298418       -0.27282052577140
C            1.13655121061633       -1.48670028172184       -0.20261510521252
O            2.31149210569268       -2.08987417602557       -0.35195352040483
C            2.44863477248193       -3.52053538758621       -0.46774776305175
H            4.01785685778751        2.55066846115531        0.70804959990901
H            3.77699305029171        2.75770353522420       -1.04826743533582
H            2.93803921968762        3.85207965845657        0.10206293391569
H           -3.02572620931192        0.35977338132147       -1.78397177235382
H           -3.83155914787612        1.73660348803827       -1.00821904342149
H           -2.12061328008350        1.85242436268099       -1.46352602562716
H           -2.08391079231020        1.39744883680598        2.28328537226542
H           -3.31734517683214        2.31224913868072        1.39813996570810
H           -1.60059480670071        2.49348190928208        0.97686197725502
H           -4.41244151370919       -0.00198731487569        0.52948140029243
H           -3.40274189379184       -0.49032103650053        1.71736800955473
H           -2.14123085953112       -1.83648885426245        0.07810358772277
H            3.53405509427817       -0.72435977132786       -0.40735631828315
H            2.04503641106575       -4.01105768182515        0.41801115726191
H            1.93826857149771       -3.87511903635139       -1.36349934499764
H            3.51921684364385       -3.69995504968514       -0.54453318920866
