42
 energy: -83.645442126709 gnorm: 0.000372819011 xtb: 6.5.1 (579679a)
C           -5.53933599340303        2.66365241054753        1.29522539302572
O           -4.46308315713605        2.11888005380719        0.55708492142674
C           -3.62310152371322        1.28128744916708        1.26495662729555
O           -3.85841293962301        1.06597830672639        2.45899568773732
C           -2.55170830671610        0.72506956685601        0.50169728010864
C           -2.26498023479552        1.01221471496308       -0.84746389735727
O           -2.91159189105092        1.74629746520187       -1.62184936444247
C           -0.99251853632748        0.29101699516912       -1.40323011756042
C           -1.08896634128961        0.13728331121793       -2.92409617339884
O            0.19091544215384        1.00448731471876       -1.06471946014310
N           -0.95318269945160       -1.02314200475241       -0.78366391044747
C           -0.89274425602165       -0.88269382563174        0.62132552721201
C            0.28926816093411       -1.57161965016134        1.28044341512453
C            0.21974358076845       -3.09450520691515        1.07529660102351
C            0.30505050851383       -1.23936348217534        2.77991013926241
N            1.42951442912572       -0.97273237695668        0.56565199783993
C            2.63554406747352       -1.33630734431884        0.92225799543769
O            3.01805378491119       -2.14828859707603        1.79823233184442
C            3.70575814902842       -0.62225599594616        0.12732071935249
N            4.99017569439811       -0.68062919622128        0.32829576606785
N            5.58086540648495        0.13218225275089       -0.61050062455817
C            4.61859974791413        0.62847790140771       -1.31819619972795
C            4.74168654124965        1.56216975108752       -2.46376009006574
O            3.41396172879376        0.19932327717865       -0.90906343698149
N           -1.65850452920420       -0.08740643744466        1.25250045006210
H           -6.09390073815356        3.31983804460149        0.62383337141501
H           -5.17929795914716        3.24284668722556        2.15379012280023
H           -6.20628178275939        1.87541826841456        1.66422130456738
H           -1.95157022077301       -0.47509320562645       -3.18096601770013
H           -1.19860722696622        1.11970705818097       -3.38149196103774
H           -0.18579729536934       -0.33426312189779       -3.30514875271414
H           -0.14960887849070       -1.54207575041920       -1.12624872258108
H           -0.71141150166335       -3.48108380996443        1.49156800543666
H            0.25585634820049       -3.33981195657761        0.01431964896077
H            1.05599288045316       -3.58456689814146        1.57277467101971
H           -0.62866633783973       -1.57187665722084        3.23641611655936
H            0.39628380476259       -0.16177400530387        2.92407484597973
H            1.13594045287115       -1.73737761724957        3.27744609946389
H            0.80469104830735        0.37485287627147       -0.58809632069982
H            4.12680924915844        2.44695406830353       -2.30085404377162
H            5.78129274293095        1.85907271586239       -2.57615084012227
H            4.40726558146527        1.07985665034383       -3.38213810572148
