42
 energy: -82.971618490707 gnorm: 0.000876046538 xtb: 6.5.1 (579679a)
C            6.52436437734521       -0.38649706153239        2.10395320059925
O            5.39859562585463        0.38158534379319        1.69583289263290
C            4.42442763721287       -0.29752169367594        1.04991756100737
O            4.52974422739914       -1.49824810034227        0.83630539937151
C            3.27827757530267        0.51249909132897        0.64998267577943
N            2.30423915027023       -0.22765185156618        0.01263580574811
C            1.22690088547916        0.32510130106419       -0.39943771961384
C            0.18574148805067       -0.48866322563056       -1.13649305202080
C            0.49217985865739       -1.97973996241697       -0.98860427199816
C            0.14166915652705       -0.05593350655847       -2.60718013039907
N           -1.12396970680525       -0.19565739804399       -0.49911889498696
C           -2.29031626026506       -0.65929778125723       -0.86979388066193
O           -2.36529645324891       -1.47031709626177       -1.88596036048515
C           -3.60745429928875       -2.00506334553234       -2.36596886221527
C           -3.44490902870071       -0.23631191390346       -0.11481617039968
N           -4.70480231961837       -0.54646397790359       -0.26695751839061
N           -5.38842851118212        0.10905164008465        0.68958670176765
C           -4.51800704725775        0.79052851259996        1.38455344332712
C           -4.77527301765117        1.66874239019479        2.54144369827340
O           -3.27428746042038        0.61035790954726        0.92311910865554
N            0.98621181036511        1.67703324758935       -0.24516536615747
C            1.86859859946540        2.53653300128220        0.37155322873958
O            1.58401020604043        3.72294833057307        0.47676571564156
C            3.15290249600832        1.91062019596736        0.87550770067703
O            3.98607849342143        2.64122292759172        1.43408523403822
H            6.22014468132607       -1.17634624028935        2.79742724482466
H            7.01244967990207       -0.84507108158670        1.23845094402677
H            7.21345852906277        0.29603165703464        2.59984088414637
H            0.43525806636507       -2.26649166038240        0.06018551569311
H            1.50377359869068       -2.16412628215691       -1.34886812166629
H           -0.20884701716787       -2.57756395569405       -1.56433350034130
H           -0.52917170162860       -0.68882385324864       -3.18174213280163
H            1.14436281206796       -0.13613620888461       -3.02533696533516
H           -0.19384552440378        0.97639847654197       -2.68224780756128
H           -1.12479285498698        0.41693193073205        0.30728076249313
H           -3.34624017307908       -2.62292042573143       -3.22297391520622
H           -4.08274863924191       -2.60445985617617       -1.58811550338509
H           -4.27304390080611       -1.19350795790848       -2.66327604624417
H           -4.22993456451990        1.30239947710284        3.41242099973809
H           -4.42155634471927        2.67746834333722        2.32527317381185
H           -5.84131118801365        1.68945024309458        2.75609657835938
H            0.13084805818281        2.07790841723143       -0.58585724947052
