42
 energy: -83.599954998418 gnorm: 0.000779894681 xtb: 6.5.1 (579679a)
C            3.65066997160376        3.69574455723399       -1.06893848554326
O            3.56089959003193        2.30588160412587       -0.77832965601653
C            2.34135299041982        1.87255658826782       -0.33227613520579
O            1.42919540832230        2.67340500190335       -0.19989752351333
C            2.26065572981156        0.42863488815024       -0.05265469748725
C            3.35195960624509       -0.41619842338139        0.10444248227544
O            4.67570363843047       -0.04863370846562       -0.08258651593649
C            3.15000932259452       -1.75218891938093        0.73767354124267
O            4.14528351524687       -2.39736511021539        1.17738556219435
N            1.90401051888534       -2.18600686161061        0.86755442443950
C            0.84088441515701       -1.44172995836845        0.23338987381271
C            0.62588931244416       -2.02080524502712       -1.20048950999678
C           -0.45285274014271       -1.66426249704957        1.09728260250647
C           -0.17899376651273       -1.13570349088800        2.51341843422223
C           -0.83623539185510       -3.14587672155926        1.15292522214957
N           -1.50408373841168       -0.85134004616253        0.48367646005768
C           -2.81874325554704       -0.93097423995133        0.75833962732275
O           -3.34101646421074       -1.76094643181910        1.51834185497492
C           -3.64089828751862        0.05287237137649        0.03974879822352
N           -4.94207338705656        0.21191524997036        0.13499510322800
N           -5.27483045830665        1.23631551130503       -0.70793572789542
C           -4.17719792439426        1.64115632565455       -1.26227204290296
C           -4.02472000714320        2.73362131193334       -2.25187139798921
O           -3.10201667057624        0.94566289700428       -0.84093593711926
N            0.99056494066954       -0.00393329234093        0.10998710592818
H            4.64773539591740        3.87786193706275       -1.46569851873178
H            3.49821951974865        4.29049667258546       -0.16302343118873
H            2.89925180771888        3.98152147460748       -1.81117454952179
H            4.74574305606478        0.84870111386404       -0.43268512037758
H            1.45530216716678       -1.70713549376051       -1.83407502578361
H           -0.30275444635996       -1.64584136746395       -1.62971096443782
H            0.60230434547503       -3.10981816371348       -1.17445628632447
H            0.65232908882254       -1.69305437518763        2.94817020406086
H            0.09185666827242       -0.08011723905941        2.46345010177397
H           -1.05774066652310       -1.24834341326974        3.14852647764393
H           -1.30866763051045       -3.46439067341746        0.22406139214925
H           -1.52322194703366       -3.34967794227238        1.97410608907777
H            0.07390571792878       -3.72991570779405        1.30706300965646
H           -1.15307825821494       -0.04235117170422       -0.02427515887156
H           -3.53052970849404        3.59320284568562       -1.79667205939099
H           -5.00620458605038        3.03789820976829       -2.60786043470567
H           -3.41786339213232        2.39915693336772       -3.09279818799213
