42
 energy: -83.611578609335 gnorm: 0.000381064873 xtb: 6.5.1 (579679a)
C            6.02841764933122       -0.26330304230099        0.59186800593834
O            4.87140837612629       -0.85790509952553        0.02172688207788
C            3.67534714286280       -0.36791942992199        0.44866144704417
O            3.61478129686412        0.51073906424416        1.29899557234718
C            2.50182992719539       -0.92107273725413       -0.34211770618935
C            2.71801832311363       -2.37826330364164       -0.75929047464726
N            1.28747318214012       -0.81663533693625        0.44579054345752
C            0.69110583560123        0.32214905281632        0.48801363089586
C           -0.49093444917339        0.45207060805074        1.45609373953469
C           -0.19523748442549       -0.42863024404598        2.67704260014364
C           -0.71178555560071        1.89629682702266        1.92700172202886
N           -1.69547493416376       -0.09389450733317        0.82306700163492
C           -2.34655128441836        0.58476688179096       -0.21244983091817
O           -1.80811448385670        1.49296686877166       -0.87613291181771
C           -3.65641702092258        0.05674809824217       -0.43715097695964
N           -4.23602794730929       -0.93962555675734        0.24405980457536
N           -5.48170603306293       -1.10455097989621       -0.29767060220117
C           -5.60777272165205       -0.23682368085775       -1.24843446725235
C           -6.79351440323728       -0.03333454124121       -2.11782265734032
O           -4.50826907928331        0.53691102727574       -1.41267615668518
N            1.06313970220758        1.39242133588954       -0.25505597647693
C            1.88006636733438        1.26703770496210       -1.42565273653138
O            1.85363516778553        2.23324103744410       -2.24069195256333
C            2.57461215986154        0.04142020900950       -1.55982054011830
O            3.28385210923951       -0.30435626426097       -2.56612392697772
H            6.07371171000610        0.80656127012084        0.36248202182414
H            6.89272642918710       -0.76918436908507        0.16397958791413
H            6.03092681706995       -0.38995964460969        1.67903012196061
H            1.82386011997490       -2.74940965364717       -1.26093465470896
H            2.91095025662366       -2.99951230102906        0.11448471150009
H            3.56288580041628       -2.45250417100487       -1.44337266842448
H            0.71568410783614       -0.08608571886823        3.16716508356260
H           -0.05276452626308       -1.46349601906655        2.36588191936268
H           -1.01707891515185       -0.38017996803154        3.38965828921458
H           -1.49489190423785        1.91408227381834        2.68352496179693
H           -1.01506092757823        2.54569833910611        1.10784678437915
H            0.20661444759296        2.28415123642201        2.36626063521675
H           -2.32456957774850       -0.55613546024681        1.46424363230686
H           -7.57392395576466       -0.73485020375698       -1.83286213909729
H           -6.53349841839983       -0.19115343190294       -3.16508179822412
H           -7.17059023059526        0.98454415640383       -2.01420235572861
H            0.45313992447362        2.19698067383736       -0.26481516585686
