46
 energy: -87.048639995416 gnorm: 0.000807169924 xtb: 6.5.1 (579679a)
C            5.30615767029397        3.53133340696547        1.35880893487547
O            4.74469014872122        2.21394953609474        1.29933884558761
C            3.56662975980518        2.10632327623955        0.66095157798011
O            3.00749734107799        3.05818075064030        0.16948537171099
C            3.03970092147753        0.71562257663174        0.62787090392168
N            1.86016649498123        0.60279440884497       -0.04761283972204
C            1.24640684011115       -0.53331935991877       -0.17278981482202
C           -0.04161169035743       -0.52616111712373       -1.00352707383515
C            0.23075168469065       -1.30218115563014       -2.30539204980786
C           -0.38236898675396        0.93557694942412       -1.35390984328771
N           -1.08360764070268       -1.16900693414501       -0.20083096969530
C           -2.53448834820325       -1.08823946155038       -0.73976354914285
C           -3.19069036945196       -2.40794307897663       -0.20025068898153
O           -2.66095134128481       -0.90309574807659       -2.01416535525233
C           -3.17489725093438        0.05694143903932        0.12186625600705
N           -2.58373440160330        0.92256414123040        0.88536965760920
N           -3.56640444390821        1.74153760643535        1.40774972924279
C           -4.68402583844620        1.31200496424643        0.92577666671792
C           -6.04276419949297        1.85276332883615        1.17445918320109
O           -4.51282151474393        0.25347050289633        0.11024247356713
N            1.76480004205216       -1.67499311983219        0.38584996988580
C            1.13295472222754       -2.99550934761862        0.31011467130799
C            2.97282964205129       -1.68707271537572        1.06725782909380
O            3.42576634944288       -2.73296520960054        1.52238880231884
C            3.62769308473188       -0.38749220316318        1.18956174055214
O            4.78866969265492       -0.41501427485441        1.86633595714988
H            4.64645667320426        4.19247426513576        1.92529162782748
H            6.26774143588634        3.44019326949260        1.85719446075983
H            5.43808380745874        3.92684459242594        0.34912811788322
H           -0.61373801138588       -1.19156753207989       -2.98428608477549
H            1.12653525308467       -0.90865863792658       -2.78601234241910
H            0.37602911532008       -2.36200412405268       -2.10891515039130
H           -1.28098568866966        0.96512879921795       -1.96855878160371
H            0.43972143168919        1.38674232611501       -1.90875879669806
H           -0.55274176072097        1.51099578166331       -0.44425917450981
H           -1.08235366763769       -0.73924961560424        0.72351671173684
H           -3.05780257939113       -2.50395008344710        0.87552426170302
H           -2.72046326947587       -3.25182232982520       -0.70135914994389
H           -4.25275370615536       -2.39359591527676       -0.43891270900025
H           -6.47446184865268        2.22866422566943        0.24680697570726
H           -6.69547023834882        1.06929905428429        1.55755806247181
H           -5.98563494409184        2.66234281742926        1.89790023635645
H            1.22431726345538       -3.47346351660450        1.28582743525426
H            0.08115316529579       -2.89527533147113        0.05110269858261
H            1.65514309003083       -3.60311095112387       -0.42942747773545
H            5.20488011067143        0.45994374431321        1.92868869260803
