47
 energy: -80.191234277876 gnorm: 0.000357020054 xtb: 6.5.1 (579679a)
C           -3.41745249579378       -0.93358225870600        2.41420928733041
C           -4.21869890526999       -0.55708316094327        1.13383335689102
C           -3.30691011529643       -0.01834492144616        0.05326525349080
C           -3.31591847644586        1.28845413536598       -0.34742485796075
C           -2.35080259214299        1.76652207095158       -1.42251612849125
N           -1.04959496492259        1.11992677404866       -1.34525907731680
C           -0.67282707271817        0.12183830350531       -2.16430909389863
O           -1.37546647197287       -0.28159928310624       -3.11126292185630
C            0.64549703290344       -0.45852688890933       -1.87408975122294
N            1.38904139148438        0.10343045668835       -0.87046695994759
C            2.55886105015759       -0.36530692154423       -0.56801472004381
C            3.29557845066940        0.35054449574662        0.56116716369374
C            2.55329185406822        1.65295557813418        0.90287616022456
C            3.34632044298802       -0.53959134249671        1.81076766452557
N            4.66229780093830        0.67507976902480        0.14684556793826
N            3.08387399864447       -1.45937173644883       -1.21227786122080
C            4.36935009694837       -2.06825247041090       -0.87362678527843
C            2.39321824993156       -2.12970208563754       -2.24428890726069
O            2.89667118417242       -3.12840698581003       -2.76909027848331
C            1.12414449484988       -1.54766241397236       -2.58294181761946
O            0.41949749577537       -2.11546655611835       -3.58755010005819
C           -4.25002413701439        2.22576209112598        0.14095413075619
C           -5.25027606000062        1.76674231224500        1.03265852878708
C           -5.25343008402402        0.48099463681551        1.44127097418390
F           -6.26684523457734        0.03598814747789        2.26551744343919
H           -2.68897910662218       -1.71041548779161        2.18268130132017
H           -4.09397305021252       -1.30223652144608        3.18596921976165
H           -2.89060097163322       -0.05859238865002        2.79473574451773
H           -4.71016158656106       -1.48888988765741        0.79498822906260
H           -2.59178786704728       -0.72281961675938       -0.35932384706335
H           -2.76431950001848        1.55999002591595       -2.41834645363993
H           -2.19937243643620        2.84843148078345       -1.33615857819690
H           -0.43934907661839        1.35961928808137       -0.57822186202195
H            1.54760407885220        1.43842451200883        1.26195685456181
H            2.48231020245490        2.28595829906584        0.01958384287729
H            3.10084771175846        2.18841914613177        1.67651013252488
H            3.95474479784465       -1.42562359330459        1.64143620198848
H            2.33972930272092       -0.85091293573456        2.08779434685756
H            3.77924247039505        0.01930845160573        2.63933383392975
H            4.63739896512419        1.38910135725596       -0.56921823534394
H            5.15856856473695        1.05825032034593        0.93842734235187
H            4.21190379042745       -2.91492458763011       -0.20255944852343
H            4.83356692379400       -2.43061694349478       -1.79233989523727
H            5.02326703470497       -1.33808712331373       -0.40702604206005
H           -0.41999268433911       -1.58434528588643       -3.68391059369146
H           -4.24590018410035        3.25385304654821       -0.19652863178031
H           -6.03414231257498        2.44076769836220        1.36336826719719
