46
 energy: -87.074406151703 gnorm: 0.000595479570 xtb: 6.5.1 (579679a)
C           -5.38717104894278        1.46750277687701       -1.65739421124082
O           -4.25949417473558        0.75473890835533       -1.18971960483285
C           -3.51241658705225        1.36591236644044       -0.11357981755073
C           -2.77241263416561        2.61467156382468       -0.63350683540368
O           -4.35754285823018        1.74675889579288        0.92324861080001
C           -2.50833217036856        0.30902261085601        0.35293043407723
N           -1.41771317413482        0.13744075467760       -0.43946677704063
C           -0.49119312007142       -0.71671730176074       -0.14065283762580
C            0.64623177442644       -0.86917720455250       -1.14364431919610
C            0.65014076015773       -2.27793878317404       -1.75715943464360
C            0.47206023673094        0.16829739210271       -2.26303819184945
N            1.91965599898935       -0.58153716096374       -0.45656002875123
C            3.12794114651911       -0.71442884113098       -1.03345847192518
O            3.34933390223078       -1.19453645315583       -2.13440900895813
C            4.23249763786061       -0.22691256578626       -0.16278785885363
N            5.50303965261418       -0.22472373148515       -0.42385500009119
N            6.12761523552322        0.31567927264668        0.66193187298808
C            5.19954073714167        0.60956287693540        1.51807518784086
C            5.36229803086012        1.22108290321376        2.85514050285121
O            3.97762155191990        0.29256650524128        1.05854838379568
N           -0.58168986967021       -1.48893979034022        1.00388003808201
C            0.44430574420975       -2.43677576338127        1.43491788252512
C           -1.67907479467653       -1.42379297733496        1.85695932285199
O           -1.71919812672484       -2.16998638362615        2.84272150929816
C           -2.72976804222884       -0.43669786902431        1.50762833566684
O           -3.75449734636162       -0.31393998589013        2.26054223436769
H           -5.10092157443586        2.30903453951924       -2.30336999961864
H           -5.98923595149044        0.76913302023685       -2.24474191819427
H           -5.99643765126736        1.84998191290929       -0.82826559548444
H           -2.13344395382964        2.99847468229358        0.15960966873125
H           -2.16169010148638        2.35005856431432       -1.49408064019769
H           -3.48796579179216        3.38504636975647       -0.91325895142069
H            1.27202129873370       -2.30201484098963       -2.65032186040243
H           -0.36941457596362       -2.54383868747331       -2.03540196052944
H            1.02834185167088       -3.01925085229165       -1.05767997869794
H            0.45483412095593        1.17310509891154       -1.84436883495755
H            1.29535413387891        0.08978461778162       -2.97100944766773
H           -0.46662736960320       -0.00917620763718       -2.78550535072736
H            1.86749359139970       -0.04885562115036        0.39733288333389
H            4.92743446068309        0.57461362158817        3.61700298285775
H            6.41924342312682        1.36981449345533        3.06161826795181
H            4.84540731398566        2.18013288520086        2.89191620836516
H            0.12772714120368       -3.45629045068569        1.20639679241251
H            1.39423616768288       -2.22882042318635        0.95593922444604
H            0.56425941690390       -2.34363145452968        2.51584449032558
H           -4.33239441218804        0.97556571661499        1.59505010230109
