43
 energy: -83.169078686410 gnorm: 0.000627736632 xtb: 6.5.1 (579679a)
C           -2.92653534586218       -1.64433397391158       -2.01782647356086
O           -3.81017765323113       -0.52846428096082       -1.83206711415348
C           -3.66566268143281        0.45154731289140       -1.00725624668441
O           -4.59913872567081        1.33836626292594       -1.01387389836828
C           -5.71836709887345        1.20581605933859       -1.90933973963431
C           -2.56702818132427        0.65072343387283       -0.08678791921145
N           -1.54822376911456       -0.27778078239135       -0.10477565145986
C           -0.53516400924639       -0.14476188730362        0.68808414926776
C            0.57790884637872       -1.18053710094789        0.67669078296416
C            0.62025722896552       -1.91669070599562        2.02334777201604
C            0.35696978158649       -2.18262407283420       -0.45550608160343
N            1.86087665856283       -0.52158782038418        0.40553279507137
C            2.56024830281876        0.24615480413591        1.26445566311283
O            2.16942354857857        0.61557495090364        2.36525809251369
C            3.88179001847257        0.63656203197082        0.72995041760273
N            4.78262678012908        1.38377825315655        1.28774426404135
N            5.82754195146924        1.45435110089134        0.41927285696698
C            5.50238906699007        0.74599367576118       -0.61804248019266
C            6.29773541116393        0.50066980238650       -1.84012339113226
O            4.28194326746930        0.20146474841652       -0.48488253643736
N           -0.43077763514672        0.88154108118342        1.57550756139077
C           -1.36181782294626        1.87238303382470        1.69129104449811
O           -1.28116418093217        2.80651939942173        2.46638025628719
C           -2.51033102778372        1.72438225485390        0.78010410026619
O           -3.42764398458169        2.66495891257602        0.86636609226286
H           -2.81624631800545       -2.19136281750940       -1.08253396187580
H           -1.95409400428295       -1.29268734474132       -2.35969171304272
H           -3.40138617830001       -2.26520882303565       -2.77611530147014
H           -5.35908119777613        1.18423946376821       -2.93842581228147
H           -6.25560429968261        0.28392329100978       -1.68534199160806
H           -6.34493759194124        2.07672297349719       -1.73195602314174
H            0.75721529912440       -1.22386913764204        2.85048805173414
H           -0.31559530761673       -2.45483882720693        2.16355865877848
H            1.44338654059480       -2.62949618076859        2.01566015176471
H            0.30450052167356       -1.66705673799068       -1.41258409673865
H            1.17796558251074       -2.89701568116077       -0.47922795290718
H           -0.57405837254528       -2.72199202572580       -0.29419708214030
H            2.28532254707522       -0.73983800677854       -0.48210437249267
H            5.75083242581443        0.85288676171542       -2.71421665745241
H            6.46753601007004       -0.56871312921743       -1.96155350898800
H            7.25127952733646        1.01856442654608       -1.77013733641411
H            0.41268657290721        0.93535092847054        2.16219240513571
H           -3.16739950338526        3.31638337299109        1.55166222731901
