13
 energy: -19.066735199830 gnorm: 0.000508434296 xtb: 6.5.1 (579679a)
C           -1.70137051680981       -0.34354778859352        0.19851757332963
O           -0.69810937985032        0.64784802161245       -0.16066954194268
B            0.78565179276613        0.50008977855105       -0.17389953876210
C            1.38018454529036       -0.89838287310229        0.11293167477795
O            1.45560288735739        1.60044253590866       -0.44474462444391
H           -2.53894098082420       -0.23532837191115       -0.48755569253708
H           -2.00983305569575       -0.17254462345354        1.22959833676758
H           -1.24284163368578       -1.32282636232015        0.08883129852629
H           -1.07472668865172        1.52766048377411       -0.29818903482412
H            2.46832508278574       -0.86866864365342        0.09170439402397
H            1.06392530301656       -1.26629445436030        1.08823412011785
H            1.04368031755305       -1.62484693792498       -0.62664560987547
H            1.06845232674841        2.45639823547308       -0.61811335515784
