43
 energy: -83.908492241658 gnorm: 0.000388760676 xtb: 6.5.1 (579679a)
C            6.69541816083940        0.11550103207395       -0.15413357257309
O            5.36737194782958       -0.24057212348841        0.23557180609255
C            4.37137142840678        0.42966952348219       -0.38923456298560
O            4.61111421265711        1.27444461162462       -1.22716121223025
C            3.01511191601839        0.03267132420913        0.04232618415919
N            2.02372532027338        0.71711183017567       -0.61015528226789
C            0.78114387795700        0.42182240910368       -0.30049062251823
C           -0.28620231931291        1.24508539195188       -1.02505476256833
C            0.02954204209924        1.34869953602802       -2.51936639663862
C           -0.32062154333812        2.64294220771844       -0.39649076225393
N           -1.59845820769530        0.63286858506947       -0.80378442491910
C           -1.86855468232316       -0.64420750769426       -1.12255814013146
O           -1.27791802182630       -1.31012790353676       -1.96001890195937
C           -2.99462637473878       -1.26968766286490       -0.27002110252179
C           -3.66955087963203       -2.43350619266444       -0.99110235529845
N           -2.37394625399266       -1.72755830395921        0.99443439565855
N           -3.06615733854300       -1.05010630279407        2.03452867455353
C           -3.93503564343756       -0.30191597441132        1.49779184301326
C           -4.90831240963997        0.56668006163705        2.20615555806585
O           -3.96216058841897       -0.30578375335472        0.13227796318897
N            0.37059006999924       -0.46763838854430        0.59499585918347
C            1.28575035031288       -1.19656479762023        1.29239498645006
O            0.93965763140751       -2.04452303548466        2.13053033285275
C            2.69888515253262       -0.91663865584680        0.98733870079682
O            3.59508815149827       -1.65258145681128        1.69011412855524
H            7.37358221627254       -0.49431125494581        0.43819556387994
H            6.84266501288914       -0.08341686626144       -1.21879961063387
H            6.87440282374237        1.17570051522273        0.04164793498833
H            0.06175356753242        0.36103051719453       -2.97689299158754
H           -0.72588844449793        1.95022160068126       -3.02279188709117
H            1.00375013645014        1.82165492706029       -2.63985297958885
H           -0.56846362144070        2.57472633271991        0.66242256118096
H            0.65997279466902        3.10644012274613       -0.49701008542356
H           -1.06172886752508        3.26774914014999       -0.89255837806189
H           -2.14752767039968        1.04104488848449       -0.06327203223292
H           -2.91190628353113       -3.14847567535754       -1.30693878083662
H           -4.20405517494593       -2.06508922023259       -1.86420385840698
H           -4.37174806163061       -2.92132980935112       -0.31887928698017
H           -5.92593428390570        0.26570185354550        1.95853296417800
H           -4.77891689265887        1.60174643716842        1.89287019670569
H           -4.75759944019778        0.48978548562985        3.28022488791770
H           -1.39538672723575       -1.37962459434647        1.04790825235061
H            4.50980491747222       -1.42963985410554        1.46152319592555
