42
 energy: -82.953766756557 gnorm: 0.000527772226 xtb: 6.5.1 (579679a)
C           -6.70812733932978       -0.05340330491990       -0.86651062859252
O           -5.52010001097692        0.63112350724092       -0.48085350395802
C           -4.41954491894140       -0.13141911233646       -0.33462082226492
O           -4.44878627909157       -1.33721402547697       -0.52820822338300
C           -3.21783992297121        0.60433498018490        0.06810095466369
N           -2.12852012230854       -0.21207022064266        0.21876652761524
C           -0.99124575124811        0.25274685263016        0.60290402804576
C            0.17484418160708       -0.68640194963155        0.74300681622712
C           -0.30670909269122       -2.11913739393635        0.93120053093165
C            1.13662002628333       -0.28108937043293        1.85407806842615
N            0.96655711079146       -0.56646662366241       -0.60104387420219
C            0.20718154504203       -1.06413231782573       -1.77713632020368
C            2.29062897265421       -1.26010320903744       -0.53937103801125
O            2.35540825665071       -2.45300328075291       -0.59909178212632
C            3.34972394815565       -0.28919010325246       -0.42696495039067
N            3.18166297667199        1.01179936094466       -0.41989033580775
N            4.40142246416296        1.56269835366779       -0.31658984924756
C            5.26116487833032        0.57603485451596       -0.26668794671031
C            6.72850359982133        0.66809661655291       -0.14942511914240
O            4.65254145176313       -0.61037719798521       -0.33484372954492
N           -0.79942163409006        1.60123504525118        0.82530262229478
C           -1.79587289370644        2.54348900003842        0.68901455667289
O           -1.54482942138821        3.72255315598883        0.89375106614091
C           -3.15621631716142        2.01170149046130        0.28447077472775
O           -4.09327278234276        2.81068509760775        0.16608718620130
H           -7.00076972796372       -0.77446630188791       -0.09767889111714
H           -6.55538954326997       -0.58420036269185       -1.81056262992916
H           -7.48510914467032        0.70063721582946       -0.98449439089315
H            0.51752416612150       -2.82317875207093        0.85230024766477
H           -0.74055241343782       -2.19899652214915        1.92733879500524
H           -1.07621685424988       -2.36928648098882        0.20244746917703
H            1.89800127053875       -1.04652933005937        1.99328756676594
H            1.63141941070217        0.66094952539901        1.62664037286503
H            0.57783711652597       -0.17348186851362        2.78238433171081
H            1.15889898573313        0.43322818068810       -0.72540659009198
H            0.22552252887325       -2.15071756200986       -1.77075768882810
H           -0.81389161641208       -0.69348393541087       -1.70794152916150
H            0.69721116131502       -0.68432803539478       -2.66970732675055
H            7.02968673612100        1.71171670154013       -0.09923714093312
H            7.06006046335164        0.14463877459894        0.74786384177300
H            7.19897445823599        0.18855137301201       -1.00826131025960
H            0.10102107679903        1.94842217491892        1.10633786464208
