42
 energy: -82.933212815925 gnorm: 0.000429091282 xtb: 6.5.1 (579679a)
C            7.63642711664348       -1.13644543003775        1.07411602027457
C            6.17577099456564       -1.03543635676749        0.85918600228945
N            5.25278577142907       -1.83599809686812        1.29553241342664
N            4.06372832056633       -1.33541732383551        0.85176495706027
C            4.33835641632422       -0.26341208715995        0.17257997874001
C            3.35613516484517        0.63725920347190       -0.49455921630054
O            3.68732455249248        1.61710218493655       -1.14582498446503
N            2.10010291654323        0.22817595347508       -0.27330909309619
C            0.90746201845720        0.91194868848339       -0.76133797824374
C            0.85848240204247        2.34498492937701       -0.21390442685836
C            0.89161468281374        0.91215513958831       -2.29699635239239
C           -0.30447504301026        0.14190891582493       -0.25528416268395
N           -1.46646995849827        0.69922018800538       -0.51183295020642
C           -2.59697360118438        0.04781834496796       -0.07438087136451
C           -3.78760731860512        0.78254081762515       -0.33908587330829
O           -4.01105998181426        1.83815525520465       -0.82387571572630
O           -5.05861450670365        0.03523958088276        0.19527035489893
C           -6.07585549698028        0.96972903217757        0.62858049584695
C           -5.55002954136440       -0.95450149106497       -0.74351853317491
C           -2.47000319390049       -1.15682776642040        0.58883198613473
O           -3.47445193780813       -1.89922926087910        1.04883812497120
C           -1.12801419234528       -1.71968856694422        0.83714505214247
O           -1.06552633289744       -2.80023916512746        1.44001107002616
N           -0.07846675709479       -1.00642281905922        0.38592811735322
O            5.66301196129531       -0.02358369924687        0.14265144926947
H            7.85803248159174       -2.01600064844037        1.67325757704178
H            7.99958216936712       -0.24517993300912        1.58552513726038
H            8.15099435007335       -1.20855276372094        0.11598897461620
H            1.93021377511770       -0.61419997855184        0.27103186009050
H           -0.08609190431403        2.80205763872665       -0.50502321741198
H            0.92335463942694        2.32981310549261        0.87346919805202
H            1.68096394886317        2.93574439730784       -0.61342413846213
H            0.97388900858582       -0.10794985986979       -2.67013801526495
H            1.72020916532742        1.50261867654858       -2.68490936627887
H           -0.04761355645354        1.34121503011856       -2.64280051650064
H           -5.62309333850791        1.59751325131297        1.39312750078656
H           -6.41701359232550        1.56798424326746       -0.21699508829861
H           -6.89006538381841        0.38155262750675        1.04396619469739
H           -5.98372532722377       -0.45726805967394       -1.61144492019895
H           -4.70554699271817       -1.57687240698783       -1.02796933168819
H           -6.29563668779471       -1.54592058192072       -0.21707427779758
H           -3.05210821099619       -2.68558790873166        1.47573656472622
