16
 energy: -33.367824512650 gnorm: 0.000759937026 xtb: 6.5.1 (579679a)
C           -1.86235646470208        0.51365604461562       -0.14662393539849
C           -0.57379330487289       -0.30070167157446        0.06440468483446
C           -0.70666616842308       -1.73406794640501       -0.47899695599504
N           -0.19111539560994       -0.30767074128723        1.42832599390185
N            0.93082854388496        0.24824265498742        1.57333150346634
C            1.35008782246437        0.65241577631343        0.32790716108345
C            2.65678048980910        1.37352953948757        0.01107551728680
O            2.88270062602702        1.77000731304198       -1.08598564586798
Cl           3.67855395988603        1.51406377982906        1.34885975014743
O            0.51351044996115        0.35464333064062       -0.57337571258541
H           -1.71097496593730        1.52285195445936        0.23050542496955
H           -2.67087989052313        0.02782822621311        0.39405216076744
H           -2.08308746893545        0.54225775324502       -1.21101547854421
H            0.23309113974784       -2.26067221059457       -0.32691015151021
H           -1.50851211765078       -2.23463340302904        0.05818342926244
H           -0.93816825512584       -1.68175039994292       -1.54023274581859
