42
 energy: -83.619625959937 gnorm: 0.000426746986 xtb: 6.5.1 (579679a)
C           -6.87382344377499        1.46615224906881       -0.15821859892809
O           -5.84287738422995        0.53477379018304       -0.44225229718633
C           -4.62660792351987        0.81390878368424        0.10372474646785
O           -4.47640033780403        1.82166622023936        0.78900593803320
C           -3.58740498664228       -0.15520964358132       -0.19323663763123
N           -2.37089143942878        0.16877932849295        0.38805088663556
C           -1.34937086633109       -0.58724290722748        0.22118411267649
C           -0.01704984944978       -0.28908203006824        0.87767020552383
C            0.11677898268193        1.22244784877714        1.12478925492507
C            0.04509134995167       -1.05657734649658        2.20810340186812
N            1.04440459582282       -0.79916821475540       -0.01484957780273
C            2.38825541985432       -0.50633117301003        0.47205328794410
O            3.01001808486269       -1.54001170446114        1.19412055805074
C            3.55836915085089       -2.59354753790407        0.41191101290376
C            3.09292541240287        0.46032537459713       -0.20149344648409
N            2.54269884088389        1.40434746453057       -1.00159195245388
N            3.57696160872923        2.25146487518544       -1.35482174008539
C            4.64811784319352        1.82532885168050       -0.78880226273444
C            6.01085083899555        2.41825225484053       -0.86404543657814
O            4.44825651943747        0.69278384574460       -0.03257547717383
N           -1.41876040682589       -1.74547895312245       -0.52489709567665
C           -2.54673542034884       -2.18643293501620       -1.15294304888740
O           -2.52293525411405       -3.23282697184047       -1.80491376341663
C           -3.77336298239340       -1.31762104275013       -0.98537035887057
O           -4.83472044014186       -1.67296191048438       -1.53929778168444
H           -6.61446205470129        2.46243634756850       -0.53154657281009
H           -7.77431259778399        1.11090694981016       -0.65824213807739
H           -7.05350209682828        1.53245183759780        0.91994403790420
H            0.22443667228204        1.74868687925335        0.17479401488291
H            0.99587708055951        1.42411665891738        1.73638705569742
H           -0.76954694283875        1.59329938388600        1.64030326573053
H            0.99838713914729       -0.87141187568632        2.70259076502214
H           -0.76398072505212       -0.73888847568704        2.86555372398007
H           -0.04785555232692       -2.12664152053930        2.02215752702262
H            0.94282881790840       -0.31716319893144       -0.91305431899062
H            3.97594256417693       -3.33176580981076        1.10086029605049
H            2.78727915056106       -3.07596886863024       -0.20427431671160
H            4.35801982130232       -2.22730669222647       -0.24628537240778
H            6.36902595415916        2.69204307003067        0.12982572948979
H            5.98158679727023        3.30896089939834       -1.48875124829735
H            6.72051136583218        1.70800533079339       -1.29151823376285
H           -0.57202330629938       -2.28949743203753       -0.63216314418174
