42
 energy: -83.582884742617 gnorm: 0.000797220765 xtb: 6.5.1 (579679a)
C           -4.28052389160603       -2.06234378140944        0.02596883749941
O           -4.42168671249849       -0.81755682135095       -0.64670556631560
C           -4.07372941246993        0.31989169630322        0.10001929826547
O           -5.16096793416374        0.95638875432609        0.70218045670725
C           -5.83947197383702        1.91336388313689       -0.10244202833880
C           -2.75121729470689        0.69668761890796        0.28773817386964
N           -1.77337518094811       -0.16083002042335       -0.21377238057145
C           -0.51393998594002        0.17744831613159       -0.02565507130872
C            0.50338080799221       -0.82540071096894       -0.59046438333538
C            0.33495008207082       -0.90389102854017       -2.11629885437605
C            0.25748107474836       -2.20307046732620        0.04352715895808
N            1.83528037624440       -0.34220407548944       -0.25291030923918
C            2.99537666045117       -0.97116675448292       -0.54245609080979
O            3.08252036606214       -2.04013998332258       -1.16723375222899
C            4.15203753106748       -0.24106582904966       -0.02677211500588
N            4.12845298007073        0.89654524445590        0.63915399771991
N            5.42743170902234        1.20310793841214        0.93814085978252
C            6.16029286945416        0.25580434016780        0.44961088117174
C            7.63632598709647        0.13836848133166        0.52081777874576
O            5.43463920062722       -0.69382783866244       -0.17579319265706
N           -0.01846534228121        1.25035338721716        0.57213440172492
C           -0.92476298463242        2.17305961116661        1.07385371598798
O           -0.53716761065243        3.24192535061461        1.63911262724619
C           -2.29836394032161        1.87112301723912        0.92778518160800
O           -3.19908666680631        2.82654295855287        1.42199576053511
H           -4.86350810142189       -2.08659291839012        0.95626555413130
H           -3.22530628865981       -2.26295150181539        0.25992120760653
H           -4.65065587552038       -2.84060202524539       -0.64538001851859
H           -6.18301165693854        1.46938243033847       -1.04555326527245
H           -5.19231222949731        2.77172152609442       -0.32674302240522
H           -6.70727124942657        2.25855244331744        0.46369350672336
H            0.57367072583645        0.05882896639936       -2.56915923881969
H            0.98766515940926       -1.66544849961444       -2.54187872369892
H           -0.70141873302398       -1.15330950945399       -2.34557993184765
H            0.90054070023334       -2.96097979749625       -0.40221455090686
H            0.44929401783468       -2.16216388328860        1.11606293340183
H           -0.78428421411754       -2.48278831694413       -0.11593890184109
H            1.85124796839972        0.54110728611172        0.26163280267730
H            7.91758476047676       -0.79025923992982        1.01718554915503
H            8.06450579294536        0.12724501818100       -0.48144632614639
H            8.04106494919592        0.98103115313654        1.07593535783753
H           -2.63321443977027        3.53811358166468        1.77487268227406
