33
 energy: -57.815963904520 gnorm: 0.000721405613 xtb: 6.5.1 (579679a)
C            3.95316583489899        1.10256549047943       -0.32141393304450
O            2.59867612661304        0.68451529354049        0.02697326136109
C            2.17279781660195        1.12496816148905        1.35365626622634
C            2.34742429720466       -0.74513756445980       -0.30627828496974
O            3.30834847540142       -1.41022587256359       -0.54176196810564
C            0.96081697970664       -1.10746167877704       -0.36463470660692
N            0.01388103061558       -0.13610698515650       -0.13995440084230
C           -1.23584046790963       -0.45918611308998       -0.23196721086322
C           -2.31887919559349        0.55827199909906        0.04290623450637
C           -2.46432046288179        0.67893161674448        1.56644120417600
C           -1.93177953250030        1.90943981593535       -0.57249419473857
N           -3.56364307975945        0.04556938857492       -0.51476763684039
N           -1.64301790155414       -1.71879570673346       -0.52706474082229
C           -0.81328641787471       -2.78490231571288       -0.77717103718860
O           -1.23387101255365       -3.89067236548775       -1.04151120252473
C            0.61720920286602       -2.41315337536755       -0.68329214012688
O            1.47435896779549       -3.38427689972621       -0.92245631276611
H            4.10846995279532        0.82202956239562       -1.36059449974692
H            3.98131698203498        2.18164750022593       -0.19818985797320
H            4.66825090924514        0.60508475868002        0.33293460815810
H            2.30480524334135        2.20379872233896        1.37447704157544
H            2.78103300443366        0.63360044225681        2.11247223002664
H            1.12065325331438        0.86626011594982        1.44551819451243
H           -3.21915486164852        1.42680662094382        1.80412878942605
H           -1.51483492058922        0.98117249248978        2.00575492429188
H           -2.76387542609055       -0.27864353385176        1.99044721600708
H           -2.70230297723550        2.64670577330095       -0.35449714400769
H           -1.82631322363412        1.81312584363791       -1.65207213248896
H           -0.98359976728129        2.24602167354679       -0.15566990299923
H           -4.34769698087339        0.49881899255847       -0.06609461559446
H           -3.60654104039272        0.26270967781923       -1.50171864360341
H           -2.65181424907745       -1.85556872217768       -0.58082229325743
H            2.40955944058063       -3.10791380890168       -0.86868111115577
