46
 energy: -86.346943527494 gnorm: 0.000972102509 xtb: 6.5.1 (579679a)
C           -3.25716351564208        1.61477121559365        3.71314335642410
O           -2.45688814238079        1.00070040169631        2.68953227513847
C           -3.09993131757993        0.40850821626255        1.70796567720269
O           -4.30127832204632        0.34106606740464        1.60864913006758
C           -2.17135079465688       -0.17498579722692        0.66394222228295
C           -2.75986956792131       -1.17325173620267       -0.31153064112012
O           -3.66923197292970       -2.03349097910665        0.31282312459445
C           -1.63680935349895       -2.04026553778600       -0.89512813353514
C           -3.44002619757087       -0.40274009702826       -1.46217404594214
O           -1.81477981110637       -3.17235375842454       -1.28202699060682
N           -0.41946905292247       -1.42268847718775       -1.02941050692486
C            0.67708215986867       -2.28263907618466       -1.50427750532442
C           -0.05735225533687       -0.18719773376851       -0.37761346210668
C            0.28125306338439        1.00507895309622       -1.35871679046476
C           -0.46985506200161        2.28704854367910       -0.99994846793312
C            0.13065693273611        0.66643899664218       -2.83853911926293
N            1.70214082022169        1.20262880416524       -1.04856885724621
C            2.11598806016985        0.39434735838233       -0.11222458942885
O            1.19352096164669       -0.42105828939579        0.32289025305777
C            3.44687829098497        0.36491759058162        0.40117503775188
N            4.44301750132431        1.13462027934547        0.03820693409222
N            5.50361768448937        0.75915004641336        0.76009877854882
C            5.11482842285741       -0.22613876567471        1.53617885883693
C            5.92413147846359       -0.97044762138074        2.51762423230245
O            3.82672344048947       -0.51136159318594        1.34994143425422
N           -0.97998410027239        0.25664017006751        0.62313971132404
H           -3.80486967878645        0.84575639125554        4.26151909811660
H           -3.96195949885284        2.31366938666508        3.25881175391401
H           -2.56529728402116        2.13664221533541        4.37032980948654
H           -4.43773904437270       -1.53690203822685        0.63450765552787
H           -4.25774685396496        0.19163047561471       -1.05913085145383
H           -3.83267469721584       -1.12023284199867       -2.18079519526030
H           -2.72822401087813        0.25344375421944       -1.95480070145868
H            1.50375183221777       -1.66553043173982       -1.83859050117392
H            0.29935040295045       -2.87678081850823       -2.33488346349552
H            1.00975371380884       -2.93939055445366       -0.69895665074726
H           -1.53270832180551        2.15623700297942       -1.19318301905716
H           -0.09841172852046        3.10587625313347       -1.61268533077198
H           -0.32275803918208        2.53039487463787        0.05079577414766
H           -0.87417723918995        0.29598596400170       -3.03138518590425
H            0.29556995540671        1.56308185154826       -3.43281241347114
H            0.85214045292563       -0.08815843389960       -3.14109445694610
H            2.27593015040041        1.88667419299314       -1.51311981486607
H            6.97778504799606       -0.73804888440405        2.38021557100481
H            5.75517677437057       -2.04070013505679        2.40143343198831
H            5.62125771594234       -0.69094640487863        3.52836757444101
