20
 energy: -38.324850295109 gnorm: 0.000605633813 xtb: 6.5.1 (579679a)
C            3.53392371655777       -0.96773471301147       -0.53797407591068
O            2.12733867111736       -1.02275835656725       -0.44321638003011
C            1.49163107728936        0.25275276602413       -0.43802255279945
O            2.20190603978115        1.28676463262021       -0.57098918210139
C            0.16735955964134        0.21022736688954       -0.09132089215194
O           -0.63003068456010       -0.97567639535181       -0.12598358934159
C           -1.87344538179638       -0.53758425771556       -0.34213278045161
C           -2.96864401550430       -1.54359618617361       -0.44420209720246
N           -2.04358640087664        0.72508932425385       -0.44668371953528
N           -0.74663185049842        1.33859621185298       -0.29418027779792
C           -0.81239776063034        2.21471335947533        0.88699019611001
H            3.97418248138484       -0.41309754047215        0.30176389088512
H            3.85824046069939       -0.49045306435484       -1.47292715234230
H            3.90298952225958       -1.99544732098382       -0.51745302818194
H           -3.92999188486124       -1.03779036744934       -0.49642269257154
H           -2.94942990303070       -2.20143189456637        0.42399681448648
H           -2.83709056624151       -2.15695630788429       -1.33604176904317
H           -1.56847151017774        2.97910283780953        0.71252632874769
H            0.16402074074364        2.68353669975578        1.00382701117084
H           -1.06187131129792        1.65174320584953        1.79210094806119
