43
 energy: -83.152178281835 gnorm: 0.000648397951 xtb: 6.5.1 (579679a)
C            4.84036888395918        2.72359831454210        1.11023528308681
O            3.83435221233595        1.77165341494021        0.74236282594672
C            4.09178785193100        1.02076875499117       -0.32796825019136
O            5.10699369188422        1.10695316451051       -0.97505629544157
C            2.97358146268787        0.07426519297735       -0.62148518607512
N            1.92411216811499        0.09187051735224        0.26599119847705
C            0.90916134607552       -0.68277041863400        0.09465757568393
C           -0.21473703844780       -0.62452034309680        1.11369725988386
C           -1.09644060957225       -1.86905238648089        1.09226077551937
C            0.36649650719144       -0.38254481338760        2.50280133323465
N           -1.10439110030020        0.55690370543731        0.68635234919473
C           -0.45719080236276        1.89520422516938        0.78519793285237
C           -2.38760720849523        0.60568494836446        1.49448281073262
O           -2.35576456666648        0.97517309574176        2.62505489642432
C           -3.53318631556020        0.20906950273168        0.72107179018627
N           -4.78533765337138        0.18009587775074        1.09734834119179
N           -5.49857470426060       -0.24831530428778        0.05166380407334
C           -4.65889211854048       -0.46953840802167       -0.92914225200820
C           -4.96494803116644       -0.95564970369008       -2.28496101479115
O           -3.40253395937323       -0.19695556062700       -0.56406210211489
N            0.81978777469793       -1.54073816841348       -0.96288090600786
C            1.80906997014369       -1.65393483000710       -1.91894326696662
O            1.72472041413927       -2.42018437053311       -2.86083144184331
C            2.95666556000194       -0.77243426448782       -1.69721294672846
O            3.93119175260798       -0.85437828879687       -2.59799887576775
H            5.01100104597036        3.42263944909596        0.28792661725377
H            4.46137692436098        3.25062203257330        1.98312369041390
H            5.77382693002091        2.20859299855326        1.35079670093117
H           -0.47152934066962       -2.75466552081867        1.19744809963115
H           -1.65599502299985       -1.93606978039395        0.16143032526725
H           -1.80231468463486       -1.84307437263575        1.92122721943821
H            0.91581424846122       -1.27616105950625        2.79723545999191
H            1.05752475922322        0.45821302679218        2.49093163015682
H           -0.42161632322420       -0.20001465616471        3.22923437160033
H           -1.35897776051196        0.39173357423176       -0.28869375304543
H           -1.08117852633129        2.59632455726527        0.23787392242478
H            0.53292844105739        1.83031220276702        0.34149771045761
H           -0.39503992470839        2.17631287271650        1.83284917818912
H           -6.04040599195030       -1.06612426440783       -2.40580319107886
H           -4.57416684375039       -0.25612246298891       -3.02436257912282
H           -4.47555216410999       -1.91653463850460       -2.44758089642596
H            0.00631422611052       -2.11728812496748       -1.10115430182147
H            3.68930752003041       -1.50892068765189       -3.27876484282199
