42
 energy: -83.000742649087 gnorm: 0.000244604747 xtb: 6.5.1 (579679a)
C           -2.50211265029053        4.24342451534300       -1.19108828303465
O           -2.64992090971119        2.84658831731871       -0.93380891240130
C           -1.53848919182899        2.18590977300770       -0.60335411525171
O           -0.45209712046046        2.72532056726861       -0.53300151483654
C           -1.74797243320602        0.74443607175357       -0.32372881794693
N           -0.59955727900004        0.09954695111414       -0.01833982501892
C           -0.58249406023265       -1.15804804264960        0.28117099214544
C            0.70766204723821       -1.86275910923815        0.64043712419853
C            0.69972524992441       -2.21547803602701        2.13608021717157
C            0.89890355401592       -3.11783557932569       -0.22266725309471
N            1.77437979398813       -0.90821378441421        0.35715110913504
C            3.07943813171239       -1.15985365965696        0.55765779168247
O            3.53956851302393       -2.18743513179073        1.03220363713229
C            3.95129657616371       -0.03592664940468        0.12730400700565
N            5.24289096177219        0.04161805900612        0.21751935747832
N            5.60358563650026        1.24204891134962       -0.31796216311868
C            4.50967203978500        1.82277382489140       -0.70345450743213
C            4.36834938963827        3.14320729867835       -1.35480039747442
O            3.42855860724484        1.06772265141361       -0.44967435865464
N           -1.75582623198827       -1.86985715798085        0.30536986716031
C           -2.93282417687677       -1.32429728197616        0.00662197618893
O           -3.93708284609186       -2.18054352199392        0.08110530080785
C           -5.29146934218074       -1.80717960730604       -0.20871383469455
C           -3.02327419807127        0.09674122111854       -0.35077563556179
O           -4.11184009886869        0.61966099772975       -0.63111578225786
H           -2.17363011915934        4.76015810419112       -0.28557248087116
H           -3.47894766479404        4.61080402541961       -1.50014226338835
H           -1.76740545692189        4.40690997540527       -1.98354173865708
H           -0.14598614669921       -2.86445057616029        2.35288993580853
H            1.61982708229118       -2.73411770421174        2.39998620552378
H            0.61409277077106       -1.30773104443635        2.73139955446440
H            1.84915170792733       -3.59013158923313        0.02088321951753
H            0.09815222927637       -3.82828892601119       -0.03018500107353
H            0.89156391457556       -2.84867788093278       -1.27755146753335
H            1.48327747566868       -0.01824416576966       -0.03286319608815
H            3.91928266027072        3.02490563367762       -2.34077383843008
H            3.71637630315025        3.78442977654048       -0.76203478188729
H            5.34617423980180        3.60782259758543       -1.45431759542465
H           -1.76133835196895       -2.85068478030183        0.54835647483673
H           -5.87658057994543       -2.71553952731454       -0.06654894599784
H           -5.63148853642678       -1.02951883788466        0.47727803809866
H           -5.38159049000349       -1.45921667879312       -1.23914009824331
