20
 energy: -37.645716730324 gnorm: 0.000375204577 xtb: 6.5.1 (579679a)
C            4.12830989648605       -0.15923870340303       -0.09610576764408
O            2.69501568561631       -0.22019649187872       -0.22655003569943
C            1.98482089089163        0.42012903081011        0.66748215320840
O            2.39547119326285        1.06042885881352        1.59461779220935
C            0.50903028931523        0.26666742979731        0.40054177485744
N           -0.46017815437359        0.77599123248151        1.09830982382544
N           -1.58073042220566        0.37447616683042        0.47773785393516
C           -2.87903981768971        0.75311428530692        0.99773562115151
C           -1.27536273522050       -0.36447646857368       -0.57183568780789
C           -2.17505431595028       -1.01361257363643       -1.53711022448478
O            0.03585134266531       -0.44457414828166       -0.63934745985770
H            4.45089340302190        0.88320616765492       -0.08860901438006
H            4.42950212087891       -0.64768456518871        0.83186408397554
H            4.53125227649092       -0.68484293722090       -0.95838219954210
H           -2.73139341430256        1.55695338723836        1.71467314245920
H           -3.32955500484003       -0.11175244024177        1.48330985099967
H           -3.50537764052043        1.08108248838246        0.17105814861946
H           -1.58841225652599       -1.48849447670307       -2.32113002889881
H           -2.85064114144065       -0.27471405734980       -1.97038421119717
H           -2.78440219555975       -1.76246218483781       -1.02787361572907
