33
 energy: -58.502646738604 gnorm: 0.000580794516 xtb: 6.5.1 (579679a)
C            4.19655538100850        1.31255550394275        0.08698527068526
O            2.84283521297270        0.91578718103174        0.18377609143495
C            2.64717563276126       -0.49043840467698        0.24943383829853
O            3.66448511209909       -1.23478839677663        0.19185953597988
C            1.34825770614175       -0.91964233675747        0.39482564268083
C            1.00121933431284       -2.35798758055262        0.40250927272235
O            1.90593295998431       -3.23132249948904        1.04154263988473
C           -0.16475799688612       -2.78845044085471       -0.12310301457696
O           -0.76953889070159       -3.89271444640554       -0.21853946450792
N           -0.95426221737831       -1.61244244482773       -0.69232004670187
C           -0.91921194717569       -0.40104823916786       -0.13450838445620
C           -2.18523428540647        0.46371413609927       -0.25957639469518
C           -3.00133655883674        0.40119973243093        1.03920504417066
C           -1.87373881481704        1.91659720982348       -0.65710881927568
N           -3.04727825995919       -0.05785063705864       -1.31519958013500
N            0.21207129493578       -0.02963222791782        0.43360489407687
C            0.36035474311334        1.17967096214501        1.23697229139510
H            4.21482116053571        2.40397597620278        0.07118827776245
H            4.78152690833689        0.95554626710636        0.94468625560617
H            4.66106934510344        0.93205655706830       -0.83247540294263
H            2.79858220016214       -2.85985931256871        0.88108467062769
H           -1.84410732949477       -1.91544460675122       -1.05867839500907
H           -2.46823159850838        0.85269136032293        1.87315177582859
H           -3.93814712034949        0.93814247377942        0.89552203559569
H           -3.22683691840044       -0.63567095581454        1.28794081935440
H           -1.05782627930309        1.95094937392754       -1.37823898078006
H           -1.61830107730897        2.53243578552511        0.20137106908030
H           -2.76294276099388        2.34173434339565       -1.12201236290748
H           -2.53688334929390       -0.19053379095586       -2.17680642815822
H           -3.49428973919541       -0.92238321909093       -1.04671857295879
H            0.65685753025939        2.02226196158107        0.61206074505433
H            1.13659147970123        1.00596514828185        1.98132414896630
H           -0.56540985741508        1.41492756699958        1.75528352789951
