42
 energy: -82.956745229906 gnorm: 0.000778550714 xtb: 6.5.1 (579679a)
C            5.26849026939322       -2.70616310456438        1.84860701697300
C            5.22292281546280       -1.61491085921334        0.85153281729036
N            6.22148682923200       -0.99987867062123        0.29909125720147
N            5.69181143107145       -0.08083058882174       -0.55680046219632
C            4.40262624401688       -0.19065855329077       -0.47363531879112
C            3.37770586631254        0.59565884722845       -1.20690683142061
O            3.68406422499180        1.45221728256586       -2.01956549351214
N            2.11852581866054        0.24150442037606       -0.87543723686773
C            0.92870956713896        0.92680544829674       -1.39741491105449
C            0.94298866429920        2.39601037706578       -0.96518035181232
C            0.88085496640819        0.79772035432312       -2.92752283140913
C           -0.28400042016742        0.22930900749159       -0.81707966848450
N           -1.25051452549131        0.91106763935476       -0.33712688379690
C           -2.38391512612121        0.26942430496867        0.16435222193292
C           -3.32927924327278        1.19715613061522        0.60344646984309
O           -3.39551737558254        2.38762258291800        0.64497054386838
O           -4.66440625382530        0.48240471821071        1.13417411017553
C           -5.82002938286554        1.29434648248770        0.84337383601936
C           -4.55588278996320        0.12032868533736        2.52865364764766
C           -2.50431722951509       -1.15857238957692        0.18743028763451
O           -3.44320328991689       -1.79235928557650        0.67001215976167
C           -1.34668575725980       -1.92106716745251       -0.43729925981682
O           -1.31448725610541       -3.13368693652226       -0.54121237157439
N           -0.30944967393335       -1.14865058630158       -0.89054755315418
O            4.04302570684428       -1.14969269454984        0.40738989106753
H            4.84510495930158       -3.61592846492597        1.42189570615979
H            4.67512471390139       -2.43709675150833        2.72208790364207
H            6.29875670234458       -2.88976221752685        2.14532676454223
H            1.99299055369834       -0.41934905316982       -0.12683059901617
H            1.00432659386293        2.46139899072842        0.12001982972532
H            1.79501386518480        2.90977520789718       -1.40635229260472
H            0.02355954058547        2.87736569087408       -1.29504594428143
H           -0.05094463116016        1.22501022387354       -3.29467655868862
H            1.71699671832828        1.32863214186102       -3.37853782274048
H            0.92791583633800       -0.25099248951361       -3.21526265475817
H           -5.84339102301346        1.43981984246942       -0.23469497088464
H           -6.69668250163456        0.74296681081441        1.17540232657510
H           -5.74743021222232        2.25214216836796        1.36123615793279
H           -3.66730822884739       -0.49801536367265        2.63143631853066
H           -4.48559816263115        1.01806606568501        3.14404657146215
H           -5.44358203558351       -0.45543696989388        2.78374812242321
H            0.47362323172517       -1.64138327708945       -1.29110394352433
