43
 energy: -83.876525897855 gnorm: 0.000541507919 xtb: 6.5.1 (579679a)
C           -2.94804839815856       -3.17316756247523       -0.22945710536228
O           -2.43091624685613       -1.84483763668236       -0.20596281721628
C           -2.72602189103315       -1.07382176896449       -1.26954752719389
O           -3.38591670487502       -1.49170069479531       -2.20337183005389
C           -2.27530756664327        0.38466476676556       -1.10719636913562
C           -2.06635439685137        1.00732367001903       -2.49366416234310
N           -1.01891224789592        0.44327008133986       -0.36397688647479
C           -1.05390471791010        0.60124775281999        0.90754643769480
C            0.26730406842621        0.58571841572261        1.67268802623254
C            0.51942552893663        1.95048021794049        2.32678887205972
C            0.25558208100167       -0.53603438912981        2.71901727076834
N            1.30854867611195        0.31784042978353        0.68256107766464
C            2.61525506470651        0.21248815501715        0.94395173021082
O            3.14350001489333        0.32532812409990        2.04142740868370
C            3.38662906382159       -0.07351080539011       -0.30030782359878
N            2.89340991554013       -0.23853857213100       -1.49014091232618
N            3.94640755462073       -0.48554850801972       -2.32274178250614
C            5.01337952388580       -0.45445639896176       -1.58622603005653
C            6.41451767601508       -0.65881660475943       -2.01547969490463
O            4.72765768387391       -0.19968557792547       -0.30009084812305
N           -2.18018791002353        0.75595427868045        1.64164646009786
C           -3.41410465151513        1.19606936624083        0.99767097845646
O           -4.29835265957864        1.70708457183833        1.74001748987239
C           -3.40909041166164        1.02595201937843       -0.35012677347590
O           -4.51841892220853        1.43348898809613       -1.13300541348551
H           -4.04084185553232       -3.15981147131885       -0.27544312279612
H           -2.62007699805745       -3.65914595777648        0.68790410850212
H           -2.56267151027479       -3.71692786716149       -1.09680545662634
H           -2.97140400564908        0.89899465348330       -3.09030633349080
H           -1.24050972631437        0.51223495565517       -3.00369183254566
H           -1.83269753176444        2.06550256584730       -2.38783873344085
H           -0.27129115873959        2.17082219327904        3.04131560270162
H            1.47231235129370        1.94323363386300        2.85309890217102
H            0.53905697278271        2.73063749244026        1.56693701849634
H            0.11438830771830       -1.49888910485114        2.22911139069079
H           -0.55616060644369       -0.37604415940825        3.42570793317090
H            1.19667138654844       -0.54943017262108        3.26588691167702
H            0.97323118519787        0.21172277196746       -0.27527364838567
H            6.85853107529918       -1.48443905091069       -1.46007552304329
H            6.44296619228566       -0.87829667449401       -3.07978054022114
H            7.00057914148906        0.23729297281922       -1.81266824097719
H           -2.10534854775849        1.02555299524969        2.60864301922381
H           -5.16281379870810        1.81019790542969       -0.51749423059639
