46
 energy: -87.022528205189 gnorm: 0.000605608431 xtb: 6.5.1 (579679a)
C            4.56086032951305        1.97435865599397        2.75104507415038
O            3.72684425064868        1.26763662730728        1.84012420743903
C            4.26026512207174        1.03006417298867        0.61510564119160
O            5.38668398475807        1.40169607873675        0.32584880644647
C            3.34078750158102        0.30436694346942       -0.26393792619374
N            2.11106157866701       -0.01515842868215        0.25200122532140
C            1.22032648413274       -0.65293403744288       -0.43708484698631
C           -0.07830312151667       -0.98513422985733        0.28610101131093
C           -0.14143073713755       -2.49817374740089        0.54662756660309
C           -0.10626878828949       -0.23815342488845        1.63116467396245
N           -1.21430356672091       -0.55067930506077       -0.55830477727887
C           -2.51194540597064       -0.64284703756951        0.05135032400205
O           -3.02348175839574       -1.92223101411126        0.23617095789618
C           -3.95500831848436       -2.36757839964951       -0.74830464764266
C           -3.33979599947344        0.45593724110919        0.08635749528653
N           -4.64522923728174        0.50544150826627        0.41316112493774
N           -5.00238240078028        1.83356769987752        0.34327172534842
C           -3.96016818602419        2.50615742796459        0.00128742823690
C           -3.85947647680963        3.97265979489842       -0.21476742610808
O           -2.85326936303654        1.72170711880561       -0.17900502446021
N            1.45547952416904       -1.04209258192238       -1.73808134979282
C            0.52101712459933       -1.77302905716686       -2.59315655103968
C            2.68455390130364       -0.79245116321590       -2.34772426312576
O            2.91437425759352       -1.17096597385239       -3.50602358303884
C            3.64482504873695       -0.08001238193472       -1.56055880171993
O            4.83620255243618        0.16880212376581       -2.15771938719951
H            5.47135698042263        1.40444624182621        2.96014666779560
H            4.83909127268730        2.94979898909006        2.34016246359289
H            3.98833737082472        2.10739104545711        3.66790903122059
H           -0.96199574063658       -2.72802533732446        1.22401831622605
H            0.79059270372672       -2.83103580812595        1.00308096184940
H           -0.29600605476181       -3.04953199289479       -0.37812752110780
H           -0.00592222481364        0.83453009243272        1.46896637337856
H           -1.05244233238119       -0.43392277797301        2.13543919983489
H            0.71273591972176       -0.57452957666549        2.26511326354539
H           -1.06379823812061        0.42298180973233       -0.81791614150379
H           -4.23461291297082       -3.38976791141113       -0.48704439605155
H           -4.85161151183375       -1.73346770460171       -0.74964267083873
H           -3.50721220290523       -2.35893590305169       -1.74945226236861
H           -3.57909205766364        4.18789206691058       -1.24716572640359
H           -4.82113216777584        4.43525397489191       -0.00259065966319
H           -3.10007401469042        4.40610903124958        0.43726088263608
H            0.86305600314221       -2.80378829579947       -2.70168852312335
H            0.51653318503068       -1.30058117510635       -3.57643391315385
H           -0.48171148659602       -1.74841089843050       -2.17760465123879
H            4.80168820933126       -0.20736348061037       -3.05489037214128
