47
 energy: -80.188049536010 gnorm: 0.000258916180 xtb: 6.5.1 (579679a)
C           -4.31099061248423       -0.75459252980748       -2.15576737550374
N           -3.06011227957471       -0.58755565535541       -1.42090407315702
C           -2.98893092844030       -0.13739456360601       -0.12102335212569
C           -4.23859463448410        0.18627199212330        0.69232896594951
C           -4.82072129113857       -1.12232127607799        1.24822664864108
C           -3.85178766202294        1.10330986174718        1.86549642559514
N           -5.24595105406434        0.84774354243164       -0.13359789022387
N           -1.86436781136792       -0.02076796075888        0.50319439115489
C           -0.66117012752066       -0.32839232043692       -0.08439622136967
C            0.50675979925629       -0.16415960982184        0.81228930216530
O            0.41185328858884        0.40347921846966        1.90945446067277
N            1.66973805676649       -0.71361626638101        0.38871104885818
C            2.89808044884702       -0.58050811183971        1.13478283796849
C            3.86597652238169        0.54482970879746        0.56655373173015
C            3.06796530230473        1.86882761919758        0.51328871464323
C            4.34206270247684        0.15667741775451       -0.81001181632292
C            5.62945710943373       -0.21663995140910       -1.07299073248421
C            6.59285556763105       -0.18002261941207       -0.06272519893569
F            7.88692438612818       -0.55189543945997       -0.35616351401572
C            6.29306269684312        0.28195711232126        1.21855275050198
C            5.01889173710093        0.66706805773872        1.53163368987436
C           -0.66981008866112       -0.74412307648069       -1.40114228568696
O            0.45950737430244       -1.04195659345720       -2.10934262089253
C           -1.89307123575509       -0.87759511390408       -2.13096900356673
O           -1.92352303131300       -1.24196752939384       -3.31677521172739
H           -4.68446633702427        0.21356206989521       -2.48873242801598
H           -4.11425771296787       -1.38534381323466       -3.02339023874108
H           -5.06133544694407       -1.22624254973581       -1.52795456044422
H           -5.66830012089180       -0.90178588827389        1.89556030184052
H           -5.16178863041857       -1.77355728856188        0.44531751276950
H           -4.06287396241646       -1.64897786465486        1.82814013141467
H           -4.74404530095727        1.35667149671789        2.43480209869802
H           -3.39974743054322        2.02095331422889        1.49065426855159
H           -3.13896887002776        0.60354779462817        2.52144301160538
H           -6.12759658281012        0.85308374601753        0.35799572085777
H           -4.98121896476928        1.81175289036165       -0.29102122326777
H            1.72599692006739       -1.14157426867380       -0.52092029091723
H            2.65520347686396       -0.34705335093682        2.17699406160962
H            3.43843213092023       -1.53085715679918        1.10184227375443
H            2.26748463300809        1.80379342353352       -0.22462541298327
H            3.73748166802547        2.68007907613946        0.22698533595234
H            2.63281576748371        2.09817136451988        1.48724112551698
H            3.59693958721136        0.14715905351414       -1.59917420870457
H            5.92106537299043       -0.52329133800234       -2.07279284708506
H            7.08678372933156        0.35663305637339        1.95559411169815
H            4.79000285183000        1.04919634939816        2.52145203829517
H            0.17828998680455       -1.31257402942068       -3.00231445413922
