43
 energy: -83.824346863985 gnorm: 0.000680958257 xtb: 6.5.1 (579679a)
C           -5.74794545687386       -0.85677029830446        1.27434558129333
O           -4.36298815824697       -0.63701087742363        1.06305404597677
C           -4.02616240301005        0.68279804991144        0.72894042077812
O           -4.94868919894690        1.53026840432627        0.61002111970130
C           -2.67517030912435        0.95934161223441        0.57022806991364
C           -2.22421094156358        2.25092674043624        0.05896472533474
O           -3.01571762228342        3.36059142628027        0.30645319994770
C           -1.06840384982094        2.36060670249589       -0.66828458190784
O           -0.47511622862716        3.32493320414408       -1.21220223428686
N           -0.40762760791146        1.04245302961332       -0.83003582251041
C           -0.56188579930672       -0.00157379357315       -0.02805081058282
C            0.43689207145340       -1.14331611598015       -0.27171884921791
C           -0.21719837683886       -1.99490992470449       -1.37342007232687
C            0.83281598623160       -2.03233453385706        0.91245396404959
N            1.66551095539676       -0.49146187874350       -0.74219707105165
C            2.65127312505824       -1.16229441603593       -1.45202822860646
O            2.47388480880647       -2.20573686276803       -2.08497403932450
C            3.92047490952738       -0.45860738363885       -1.43708317259116
N            5.02643079682217       -0.77509558757545       -2.07858383605964
N            5.95275619971780        0.17235163463510       -1.75052025685005
C            5.37936106891535        1.00300615349024       -0.94011705118694
C            5.97713147217133        2.19961750253748       -0.30290896192225
O            4.09428432291015        0.67577284123820       -0.69233528848360
N           -1.64769274847521       -0.04813378971311        0.72485661154483
C           -1.79653545915408       -0.95046030361662        1.86359937631000
H           -6.32212148522169       -0.67115956137356        0.35839396450135
H           -6.13393613037668       -0.20656906659667        2.06818497956597
H           -5.86580867402639       -1.89970507882961        1.57073924873516
H           -3.91932269299671        3.01602303571428        0.50582127911200
H            0.42643715017995        1.07506506474058       -1.40136143839217
H           -1.23915072443240       -2.23197994141718       -1.07880238794698
H            0.32733469396011       -2.92588031526701       -1.51194414202497
H           -0.23513769887428       -1.44817458951566       -2.31503496435281
H            0.02076392485481       -2.68869340008615        1.21326121903782
H            1.66638940182355       -2.65846553909749        0.59347373423393
H            1.16168870495467       -1.43530536808019        1.76022286627201
H            2.03237197019407        0.16841878749001       -0.06945167881938
H            5.93725243967703        2.10468514487292        0.78252484662379
H            7.01266486219142        2.30168190124601       -0.61952721431356
H            5.42076301341601        3.09474656790098       -0.58374539747276
H           -2.11363351756876       -1.93952385507523        1.53411685338336
H           -2.55046092400248       -0.53985768769299        2.53120735583610
H           -0.86156487057937       -1.01516663434115        2.41346603808247
