42
 energy: -83.622315923576 gnorm: 0.000696385674 xtb: 6.5.1 (579679a)
C            3.89424596720324        3.51615434962954       -1.96870479243642
O            3.27720898510882        2.85924219782961       -0.87823499296805
C            2.69085091528654        1.65369273651530       -1.16815561983842
O            2.72589926420050        1.23186710848341       -2.32728968771952
C            2.05411239826331        0.97783032130090       -0.04629728802781
C            1.98537345796005        1.55120823860434        1.26161621573788
O            2.60894407825149        2.58527043880493        1.65580260209318
C            1.03381045271921        0.88157495019151        2.19409439924179
O            0.70092936275518        1.33096874955560        3.30049413807538
N            0.40467821983597       -0.25594725599306        1.72173393949611
C            1.02667687772475       -1.04855582119575        0.66326470826692
C            2.21276487553110       -1.84163869803194        1.27558919092396
C           -0.05803984117706       -1.99735593527905        0.04904701509507
C            0.52004905381025       -2.71822962556289       -1.17672559514765
C           -0.60384337370080       -3.02764521218208        1.04828983802188
N           -1.13642941983708       -1.09942062589994       -0.37076002167659
C           -2.31288959552627       -1.51513128600690       -0.92305731966926
O           -2.51695983796112       -2.66313352107628       -1.36118275356997
C           -3.31961859296119       -0.47240896472786       -1.01107435267928
N           -4.52703618677533       -0.56357589925234       -1.54701289852283
N           -5.11402141319671        0.66257692492705       -1.39730337828719
C           -4.26114983172763        1.42504144225800       -0.79261221588781
C           -4.44651446901120        2.84527442009323       -0.40805286532931
O           -3.10094501843675        0.79025316032187       -0.51378052440106
N            1.49159292631353       -0.21052519735597       -0.39978140122477
H            4.34304913792208        4.43252850548865       -1.58479835189510
H            4.67372194767065        2.88926114595367       -2.41662948884746
H            3.16253373924444        3.76659632672579       -2.74557920733166
H           -0.07149322976285       -0.78062973561025        2.43873440301553
H            1.88193876943900       -2.46066285958333        2.10641035957694
H            2.68005857664254       -2.46968979321903        0.52048326702225
H            2.95448456621624       -1.13328633901298        1.64485813719096
H           -0.25983179352978       -3.26769155772755       -1.70133312826159
H            0.96673209072190       -1.98942575741961       -1.85548366738091
H            1.28543927927584       -3.42834593576103       -0.86766740404157
H           -1.02663106083929       -2.53924318513442        1.92490566171561
H           -1.38595067611448       -3.62196405724090        0.57615179699997
H            0.18736330119420       -3.70218518381122        1.36925127916205
H           -1.14468088860631       -0.20122146531358        0.10064165128319
H           -4.33829080038585        2.96378408762355        0.67029214140318
H           -5.43921643754733        3.17242004167643       -0.70702823644805
H           -3.69891677619544        3.47236776640859       -0.89485655272922
