42
 energy: -83.673657797616 gnorm: 0.000190188104 xtb: 6.5.1 (579679a)
C            6.42237817666981       -0.49151794564266       -0.21286602250112
O            5.04002806178134       -0.30435826342103        0.03717127152156
C            4.66421419351173       -0.35710623607085        1.35903304325482
O            5.51140988445844       -0.54166537818163        2.22370560640472
C            3.23745367932317       -0.18642564670876        1.53912661449770
N            2.51417096531525        0.01719364657755        0.37242280805619
C            1.23755118758770        0.13836365105176        0.41989724287601
C            0.40644169852539        0.41472459249752       -0.82441467720472
C            0.41472931691824        1.94407436805542       -1.03778286768479
C            1.06449103828447       -0.28898713957382       -2.02323459083932
N           -0.93893205863840       -0.08827226339859       -0.55861277932623
C           -1.84300534628792        0.05550755558549       -1.48838430509608
O           -1.77360922815432        0.58772950046519       -2.62173092004353
C           -3.21678404591698       -0.59668868276993       -1.08585391431287
C           -3.90020696689870       -1.20810616959047       -2.30996913410252
N           -3.04816590972247       -1.61422358977727       -0.03274493304390
N           -3.82561469589527       -1.17417783369745        1.08133494442586
C           -4.38450842351424       -0.08577258384867        0.73882116492582
C           -5.32563077401322        0.70048129854687        1.58154652229521
O           -4.10124677363997        0.37741111659448       -0.49771223788341
N            0.54929196083336        0.08197154343297        1.60950530276163
C            1.12597644584663       -0.09739095764793        2.83002979281024
O            0.42918961441227       -0.14336570985308        3.84818871886166
C            2.63149416327910       -0.23952273336148        2.82230931392019
O            3.22537229259221       -0.39992379504957        3.90935528242546
H            7.01926601932636        0.28256781446437        0.28115732312531
H            6.56543585265679       -0.42923542454735       -1.29112880813831
H            6.75590410423542       -1.47177008240428        0.14481266827240
H           -0.11355411162727        2.20302040088043       -1.95429386645342
H           -0.07082975688764        2.43948861878132       -0.19669236546242
H            1.44280005109711        2.30087045653619       -1.11028325972533
H            2.11193318193066        0.00798816335936       -2.09240220072291
H            1.01557489395820       -1.37063356697815       -1.89278707049506
H            0.55853859029692       -0.02021015359114       -2.94927167804077
H           -2.06689454796049       -1.58850075780103        0.28807324616757
H           -3.99805825809219       -0.45213035958097       -3.08789716344431
H           -4.88664396110377       -1.58183733144827       -2.04143493534232
H           -3.29518439205059       -2.03156954877926       -2.68514201195775
H           -6.30453874009353        0.74129074644693        1.10470867020990
H           -4.96531818775699        1.72230898625075        1.69581564422344
H           -5.42197626210656        0.23525056702869        2.55961171015625
H           -0.46294193245847        0.13662112716762        1.54801185063354
