46
 energy: -86.311046969056 gnorm: 0.000740770004 xtb: 6.5.1 (579679a)
C           -4.54217356629156        0.90213275914881        1.84965878514363
O           -3.62958523222063        0.49425698134683        0.80016366058939
C           -3.99078010782458        0.66250395728459       -0.42752284880991
O           -5.00906179909641        1.07483564899451       -0.87631764031936
C           -2.79632548373883        0.20093425792450       -1.43723025414151
C           -3.13105866781738        0.77013718083487       -2.81650259911429
N           -1.62079784369531        0.77829097143598       -0.89534262045561
C           -0.81671556193465        0.14753750037954       -0.12470107543910
C            0.34559321226119        0.96177049745382        0.42769617236809
C            0.43420032136942        2.30028552586696       -0.31902364669376
C            0.10629097337171        1.21559306882782        1.92409678633109
N            1.58047050502892        0.21563915351959        0.18351026756397
C            2.78321361304564        0.59825662382417        0.69734329561975
O            2.94733845145300        1.43515118954768        1.56003115912435
C            3.87753773039293       -0.18031119065221        0.07161852130221
N            3.75430120392293       -1.00382220088910       -0.92685399504939
N            4.99863796840278       -1.48332252773182       -1.19513236132826
C            5.80453021552448       -0.92136741449344       -0.34296066585355
C            7.26437833068835       -1.12209880588748       -0.21332025021015
O            5.15467585130403       -0.08637334196964        0.47999300834432
N           -0.99586875802163       -1.19039364944562        0.22535396354757
C           -0.18676117049496       -1.90729736001851        1.21659778319197
C           -1.98688460517916       -1.94477342232751       -0.33421883784369
O           -2.17678115189450       -3.12591758828496       -0.11537074585733
C           -2.86296646646645       -1.23715399811267       -1.29814380563661
O           -3.73571589502905       -1.93898398752853       -1.91278879262041
H           -5.56780072325346        0.69742655197171        1.54297348768565
H           -4.40310491802249        1.96658198707764        2.03850544276263
H           -4.26677896883756        0.31815176933681        2.72428165832976
H           -4.07577013240816        0.35712884345835       -3.16322657676351
H           -3.20507162836724        1.85292777697982       -2.74668147761087
H           -2.33560163522487        0.50451841699850       -3.50881012298482
H           -0.46471372760983        2.88618153904099       -0.13942664856479
H            1.30099208048012        2.85196795003747        0.04158845083049
H            0.53750314458752        2.12698702851121       -1.38833464614392
H            0.73714506741960        2.03353525563318        2.26706197265430
H           -0.93749582621016        1.48831883128142        2.07256731603880
H            0.32994185531492        0.33305997584931        2.51694025229662
H            1.60693824108983       -0.35424421137136       -0.64929733176821
H            7.77249003050143       -0.15848684000729       -0.18482995736580
H            7.48424345394782       -1.64815519660991        0.71685614634312
H            7.62915952246226       -1.70864105325899       -1.05347924559497
H           -0.68469928094102       -1.84347690479467        2.18367862115687
H           -0.13113773061481       -2.95032364867101        0.90723243518038
H            0.80773580290837       -1.47992700034849        1.27198262841134
H           -3.70366669427963       -2.88903890016468       -1.65021966864147
