47
 energy: -79.537571042054 gnorm: 0.000256714274 xtb: 6.5.1 (579679a)
C           -0.48324051739629       -3.64633463847248        3.02090406008696
O           -0.02802538201437       -2.40646438045595        2.44955246687624
C           -0.77956532667659       -1.66687095118394        1.62386153110631
C           -0.25506268669175       -0.49537765712767        1.12489790116327
C            1.07475108230076        0.00580396643095        1.42614941594527
O            1.91411153224374       -0.60671039947118        2.21573414718479
N            1.44229470218515        1.12967905815475        0.87718606733767
C            2.75344520370736        1.75458490200488        1.05723579473312
C            3.66818444328461        1.35507916955100       -0.08068211975121
C            4.29058890768454        0.10844269783466       -0.06420956868262
C            5.11589737784339       -0.27808075296213       -1.10960171610485
C            5.30109154286380        0.60363199204968       -2.16045621129246
F            6.09516857944053        0.23670752536208       -3.17358641091949
C            4.69709581013019        1.84748564629779       -2.20635316442287
C            3.87201353202864        2.21843874659829       -1.15374432663325
N           -0.96258035770359        0.29929907046024        0.27245897323504
C           -2.17302804260565       -0.01429774750579       -0.08532215388790
C           -2.83387613149165        0.92662959775311       -1.08347327829977
C           -1.99711231744485        2.21028459460840       -1.20472731594028
C           -2.90040728665780        0.23370889727442       -2.45266273382535
N           -4.18203940037702        1.26552011670706       -0.63945296450529
N           -2.76566599025285       -1.15481377100837        0.37255292928687
C           -4.12269126160122       -1.58206987267750        0.00464561434255
C           -2.12718588968827       -2.05806365037611        1.21791414853978
O           -2.69550244515646       -3.08419564522074        1.56076495393507
H           -1.37078084077598       -3.48186141376110        3.63400587172268
H            0.34200239398479       -3.99431648425745        3.64062775153303
H           -0.69556232034397       -4.37331745929780        2.23523378760409
H            1.53364089925090       -1.41832609594375        2.61446196534157
H            0.77042911179361        1.56840844451820        0.25511225325982
H            2.59520427887285        2.83424434900383        1.07382622469304
H            3.15215879865076        1.42583489366226        2.01925951249288
H            4.12759693352085       -0.56295697702847        0.76964614179429
H            5.60481389818485       -1.24364920238160       -1.11124271660573
H            4.86524717969325        2.50831863584650       -3.04673418785699
H            3.38563476417397        3.18608761870402       -1.16932493211184
H           -1.89354856189150        2.68429589152897       -0.23048583830166
H           -1.00519905183331        1.98477637323325       -1.59242475729244
H           -2.49519671068688        2.90083278400995       -1.88322945282914
H           -1.90060931327217       -0.06721719091375       -2.76325525799328
H           -3.30386874319065        0.92810005696308       -3.18833370142667
H           -3.53870848066696       -0.64679413284024       -2.41680875777998
H           -4.62111382743127        1.83998928154158       -1.34652711385125
H           -4.12387336601742        1.81010424551839        0.21019984514608
H           -4.62107046943074       -1.94054399648456        0.90568001170897
H           -4.67350138745099       -0.74519176319238       -0.41318176609959
H           -4.05235686308968       -2.39883637305783       -0.71387392266046
