33
 energy: -57.872979509734 gnorm: 0.000257028588 xtb: 6.5.1 (579679a)
C            3.43083314647197        1.25935649109796       -1.87232729772215
O            2.99837001632225        0.19442159950719       -1.01835463404643
C            1.72960737682407        0.20859261900787       -0.63988837189513
O            0.94545936154668        1.07401847974079       -0.98139415652655
C            1.35253214521774       -0.93136872231209        0.24075401474975
C            2.15611626156570       -1.99214632329861        0.55951723724347
O            3.40990178855542       -2.15107084605227        0.12579541966911
C            1.65381619218398       -3.05943168398475        1.42469445255853
O            2.32272988863992       -4.03191027637018        1.73727149113650
N            0.36422416341071       -2.86963357446022        1.85439152697893
C           -0.38660425295356       -1.78509289994303        1.50265083377303
C           -1.77467106959100       -1.71845082590664        2.04203640075720
C           -2.37239838926096        2.00031298342942       -0.95768865475265
C           -1.69050083090476        1.96763749323807       -2.26637050955682
C           -1.58946706085834        1.93218874315086        0.28540557479448
N           -3.66161951256081        2.07672415955033       -0.90773515463441
N            0.06764622529870       -0.85478646746872        0.73229889519455
H            4.49632379324696        1.11222922753484       -2.03832296666705
H            3.24807100565313        2.22196046952875       -1.39043216160180
H            2.88772817952352        1.22021923962417       -2.81871149341702
H            3.76479523500295       -2.98778885425378        0.48206391379720
H           -0.02948465896994       -3.57622704348138        2.45530493143121
H           -2.38267533830173       -2.51531380598565        1.61293952651424
H           -2.21746440480642       -0.75913883096197        1.78801687446221
H           -1.77020679527601       -1.84109360780467        3.12452070389058
H           -1.11299115405703        2.88677990058959       -2.38415759834755
H           -0.97289955185429        1.14608688362209       -2.28419971012592
H           -2.39274924587484        1.87449541308378       -3.09131374007032
H           -2.20174161496488        2.10022702157787        1.16791815914048
H           -1.12771595288861        0.93650485671912        0.34819489533061
H           -0.76113186640555        2.64002936881429        0.24999297176855
H           -4.22652532131501        2.10684362990954       -1.74022179015473
H           -4.15730675862536        2.11482518255295       -0.03278458367160
