42
 energy: -82.971597377456 gnorm: 0.000494932015 xtb: 6.5.1 (579679a)
C           -6.58136753199242       -1.40634368444125       -1.50069593861815
O           -5.40122940653010       -0.63400809789234       -1.68405073365191
C           -4.44392186013125       -0.78182671063349       -0.74043966936690
O           -4.60437072593287       -1.54146498693947        0.20585726556418
C           -3.24912523487768        0.02794308282076       -0.95527524654840
N           -2.31009154398147       -0.13661963672596        0.04175056275085
C           -1.20380298025251        0.50459212021363        0.01254412061704
C           -0.20609532164638        0.35432199598457        1.14038650394290
C           -0.57926434053863       -0.85060795486445        2.00550471060015
C           -0.15623832280553        1.65231208411687        1.95625119595793
N            1.12181231792987        0.11747409536972        0.51797843326014
C            2.26007423720250       -0.02742499534862        1.14726566799396
O            2.28311396388560        0.01934353804862        2.44837884972538
C            3.48928140524878       -0.12674332199480        3.21234849693117
C            3.44208373491020       -0.23936909737058        0.34713249407245
N            4.68362936993850       -0.40830905853785        0.71633455043805
N            5.40771643559087       -0.57290970778515       -0.40671272063831
C            4.57834202104728       -0.49864458612799       -1.41216832900690
C            4.88783708903100       -0.62572364417569       -2.84867679762828
O            3.32273767612735       -0.28947729357423       -0.99691615866177
N           -0.89474421478270        1.39594667976592       -0.99724923460398
C           -1.73306653255709        1.65399101942404       -2.05950322681576
O           -1.39100325058416        2.45510256042484       -2.92014164823308
C           -3.04858957808687        0.90263459997027       -2.05780834169606
O           -3.84031820312173        1.09845215092601       -2.99298316185251
H           -7.23691789102683       -1.19192708909967       -2.34402247280625
H           -6.34361672212488       -2.47418157089350       -1.47671037507052
H           -7.07887057538620       -1.13430902536849       -0.56459598319495
H           -0.51532467648450       -1.76359498884125        1.41572195810651
H            0.07968833895760       -0.93020325957295        2.86551152284996
H           -1.60581502183788       -0.72581496506066        2.34898892572735
H            0.49440971102458        1.54719790067300        2.82005740833987
H            0.20757919778910        2.46867124743813        1.33561120250743
H           -1.16243409915597        1.88740111292096        2.30109496795517
H            1.16080606792788        0.05932161625368       -0.49220409098382
H            3.93704806010746       -1.10305792753418        3.02056012231149
H            4.19640672552609        0.66077587644838        2.94852721124441
H            3.18600261266530       -0.03938769259529        4.25389703620338
H            5.95808019152985       -0.76373778691284       -2.98247614281801
H            4.35156542900262       -1.47854091367432       -3.26654910948254
H            4.56022074199091        0.26803576921210       -3.38021127729187
H           -0.02222829359683        1.89267854595730       -0.98231354813131
