47
 energy: -79.472809982148 gnorm: 0.000358305866 xtb: 6.5.1 (579679a)
C           -4.77153863770355        1.39672296119784       -0.94245205492527
N           -3.43088841082392        1.14986372490175       -0.40435882255893
C           -3.00869567876078       -0.04712959507635        0.11386751279353
C           -3.91682112247509       -1.26906574821115        0.19527473712179
C           -3.07195202869166       -2.49932150396750        0.57031367098672
C           -4.99449293907119       -1.04199126513432        1.26389283491044
N           -4.55273044562755       -1.50859267078198       -1.09155585094865
N           -1.81742413767513       -0.19315990114366        0.60343071318235
C           -0.90935281565137        0.82462224459044        0.62083559842237
C            0.40043773699810        0.45237809349932        1.23395043115846
O            0.57679389212677       -0.61931496003535        1.79488752055631
N            1.38468251680721        1.38215510735044        1.14768360263693
C            2.69573584403367        1.10706017995782        1.71819475890570
C            3.57108301310004        0.51466527339090        0.65772550293515
C            4.65348039324164        1.25473333169804        0.12567810871428
C            5.43714788545037        0.73768865274261       -0.85871889840272
C            5.29658655889223       -0.68016762673501       -1.25210135111551
C            6.41471909354050       -1.45127440752145       -0.47686968493349
F            5.57021489391575       -0.86910820344747       -2.57858103323606
C            4.01893799417381       -1.31184543078737       -0.85736202325104
C            3.25395661690307       -0.75627440046599        0.11867207983356
C           -1.26347891930225        2.04162572685694        0.11393956709535
O           -0.45441814766911        3.11500661926725        0.08199804166036
C           -2.59503883716692        2.25060631244709       -0.42752039588573
O           -2.94731437589219        3.33940494041387       -0.87104020297905
H           -4.67856826053223        2.09972384294393       -1.77030267317795
H           -5.20438202552997        0.46443714201566       -1.29484678542960
H           -5.39669457602949        1.83702619528044       -0.16534155740287
H           -2.28618477964012       -2.65065171968636       -0.16763386136697
H           -2.61326051087941       -2.35656322118763        1.54772915749435
H           -3.70975033236110       -3.38063489749792        0.59658038715179
H           -4.52689748118287       -0.78782181770118        2.21454553519081
H           -5.66591495531123       -0.23652937203691        0.97408835610490
H           -5.57902910890995       -1.95213078713870        1.39078435535695
H           -3.87345911233250       -1.76339605832257       -1.79268945076068
H           -5.25248117995451       -2.23173332006683       -1.01772857467455
H            1.29594842805856        2.20586973834197        0.57513025682169
H            3.11360930545224        2.03521178285149        2.10921167207086
H            2.55675299090819        0.38449426603534        2.53074429343891
H            4.81925972223690        2.26592195201419        0.47871434776880
H            6.23709424789416        1.30718520001659       -1.31604310971234
H            7.37531897867859       -1.03497890415651       -0.77084027851608
H            6.27727551205036       -1.35147767689474        0.59573026957076
H            6.36287884507838       -2.49854725004958       -0.76552897111768
H            3.77597124830881       -2.26824157766616       -1.30443015285774
H            2.36706433763356       -1.26608218926620        0.47887846012679
H           -0.93418423630630        3.85963021716648       -0.33198703875603
