33
 energy: -58.561300776555 gnorm: 0.000843250643 xtb: 6.5.1 (579679a)
C            4.11307471989713        1.84815450001606        0.32252467239834
O            2.83365386871387        1.24151692299538        0.17866230105286
C            2.80756107117134       -0.10262355658549        0.20423821938512
O            3.84042660320488       -0.74493893707990        0.33647993744408
C            1.44974036901338       -0.67496573092413        0.06262787560473
C            1.26238552047227       -2.06084952872539        0.16630303044697
O            2.31327602184800       -2.97255764745654        0.27761700153835
C           -0.06086792945297       -2.58948080398088        0.23950620066635
O           -0.38314043393674       -3.77994642551980        0.40042707036392
N           -1.06456938040764       -1.61566152223534        0.22738556791908
C           -0.83922274477009       -0.33072483492274       -0.42695746568831
C           -0.97237977965112       -0.49461459459784       -1.96393038627148
C           -1.87233839812262        0.70464289895427        0.11373568232344
C           -1.70034328493766        0.82864978155711        1.63732860871831
C           -3.32329918375625        0.34016211963161       -0.21689192098153
N           -1.56785125152737        1.97988072167124       -0.53719833891572
N            0.47467036983593        0.20542175242278       -0.13490572257099
H            4.54403719336934        1.60374453367222        1.29783829271109
H            3.96656744237338        2.92407172283672        0.24005443622142
H            4.79241153442298        1.50224770818623       -0.46198270592233
H            3.15475755647862       -2.48260401690581        0.30834047210661
H           -1.98336014443518       -2.00470006216576        0.06813892837579
H           -0.99268864209755        0.48777872070825       -2.43334864573684
H           -1.88459037577413       -1.03281119214870       -2.21593381663770
H           -0.11959375899496       -1.05414044881178       -2.34758530491994
H           -2.37423936890973        1.58653844009719        2.03464489488743
H           -0.67308571553928        1.11416687286615        1.86842687238785
H           -1.91710022792705       -0.12600864806728        2.11835464112742
H           -3.48414091560658        0.33994789019907       -1.29451801421784
H           -3.99532481391317        1.07659373151303        0.22470464327608
H           -3.58585132333510       -0.63944835648464        0.18114148237106
H           -2.15775668365957        2.70410980834992       -0.15157395964454
H           -0.60081691404653        2.21844818093436       -0.32365554981882
