20
 energy: -38.324720935238 gnorm: 0.000609957712 xtb: 6.5.1 (579679a)
C           -3.58184923307344        0.27719113592755       -0.61334213474541
O           -2.18205896798612        0.45295670691913       -0.62331855079967
C           -1.45066336445482       -0.63873787559529       -0.04836833100654
O           -2.08874817354738       -1.64482781306239        0.35210272775944
C           -0.13534029788930       -0.30533075510985        0.14653164292644
O            0.84903967815671       -1.28159626332999        0.49640662051503
C            1.99353972512771       -0.79612031847774        0.00945954264404
C            3.23730801475362       -1.59629326600636        0.19677276304690
N            1.94708085866210        0.33265505975969       -0.58916721868883
N            0.57142405483683        0.76869110587956       -0.55929950875092
C            0.53341297608402        2.03921739063636        0.18369736866110
H           -3.88050944529550       -0.62650167262642       -1.16232955729420
H           -4.02499303577799        1.14983557632488       -1.09825946250943
H           -3.97202573634737        0.20173924317272        0.41105287804787
H            4.09640262413185       -1.02993526668684       -0.15539192471193
H            3.36824467882477       -1.83663524568358        1.25139576355444
H            3.17108569950856       -2.53262812968941       -0.35791358505587
H           -0.50030308498945        2.38148663483972        0.19896932269402
H            0.89637735755537        1.91795182138850        1.20934019358394
H            1.15257567171986        2.76688193141958       -0.33920554987014
