42
 energy: -83.651245882086 gnorm: 0.000207532766 xtb: 6.5.1 (579679a)
C            6.36702351765249        0.82068885194461       -0.26213288443064
O            5.02782806485283        0.44932417883451        0.01744744402874
C            4.83935976770746       -0.25012423483921        1.18521464876602
O            5.79682738401114       -0.49808127086003        1.90626595104150
C            3.45395462844982       -0.61827773532625        1.39758771983869
N            2.57304247451814       -0.20451463824202        0.41014922301470
C            1.32593250215739       -0.49741779172463        0.49147024167513
C            0.35754409210310       -0.09282182343122       -0.61604518045593
C            0.66356493233226        1.36519034996147       -1.00803384288948
C            0.63608596891732       -1.03247969565902       -1.80016385670456
N           -1.00001887859169       -0.24875330424683       -0.08493226795158
C           -2.15537178977857       -0.17999484126388       -1.10945147745129
C           -2.65625951513141       -1.65494744987021       -1.27480477410696
O           -1.91122410343085        0.44760186284023       -2.22276023943768
C           -3.27008371343036        0.55111102002885       -0.28599760197458
N           -3.11656171639706        1.48296986398927        0.60203880804342
N           -4.37909913020946        1.93020969332319        0.94375467832297
C           -5.20753381407270        1.24297140522734        0.23293829589686
C           -6.68795073572024        1.33656612829129        0.22535135665344
O           -4.58034494426711        0.35654804657376       -0.56531575270134
N            0.82449987400548       -1.23443600083630        1.53973923822922
C            1.56780698856292       -1.69125961852081        2.58831935138241
O            1.03037995465152       -2.33254427324216        3.49500397901154
C            3.04257782783153       -1.36334601752838        2.53426911720521
O            3.78038192450279       -1.75946479823714        3.46004088487927
H            6.36369158798037        1.33910357378278       -1.22043030697796
H            7.01239987708649       -0.06204383857754       -0.32522358380023
H            6.75964758077588        1.48658142668940        0.51384790940637
H            0.03991634547653        1.67127955444011       -1.84641571629647
H            0.46995356464932        2.02828709546024       -0.16395241892566
H            1.71402291863809        1.45502187542431       -1.28790994506248
H            1.68994908827646       -0.96009747357825       -2.07260660923548
H            0.42066742992794       -2.06429729939377       -1.52195477922879
H            0.03109077350443       -0.76034605172153       -2.66392471809118
H           -1.14917607436503        0.52625376754710        0.56461291304643
H           -3.57877152385115       -1.64949451479659       -1.85308300095449
H           -2.83666858944202       -2.11125937061560       -0.30313208190964
H           -1.90919369672803       -2.23387980175322       -1.81349992917437
H           -7.00970975385106        2.08155206471262        0.94873745061449
H           -7.04432354032613        1.61856719961302       -0.76516159504641
H           -7.12755229867937        0.37252655781703        0.47961313557323
H           -0.16830325030624       -1.43900667225088        1.53053021618727
