43
 energy: -83.126183041355 gnorm: 0.000347942734 xtb: 6.5.1 (579679a)
C           -6.17100280670533       -1.50929502927178        1.07340598503792
O           -4.89969706393668       -0.91818268132210        0.77106607040605
C           -4.76020261279812       -0.39082062827518       -0.43036653788827
O           -5.64105533674205       -0.38308194801302       -1.27136401735100
C           -3.42162590368745        0.20561052111551       -0.67653749317508
N           -2.49566323664184        0.11557451076092        0.32172175950862
C           -1.32502320395326        0.63268001642413        0.13699213933580
C           -0.30465037428685        0.59431597366662        1.25167918643230
C           -0.23561215179658        1.96882402745971        1.92290489241431
C           -0.65565412577425       -0.50436720166531        2.25916903189499
N            1.01417528991844        0.31342068457400        0.67048682110075
C            1.20217273283021       -0.72641197932468       -0.15816365516356
O            0.34586508162517       -1.47162327164299       -0.58256156747132
C            2.64448392581935       -0.88645507021503       -0.55224352704917
N            3.11982809668745       -1.87513553535035       -1.36639093279489
N            4.37112169098586       -1.72375323418779       -1.46595314176541
C            4.79476659876171       -0.60126995764519       -0.70057065812175
C            5.40575280636912        0.47718816278002       -1.60360796950215
C            5.74568365370660       -1.03125826272991        0.42282278001785
O            3.57547421189490       -0.11488969621002       -0.13410839956656
N           -0.98313020418483        1.27518577887703       -1.01026137417679
C           -1.81787375309578        1.41426276009609       -2.10943720922656
O           -1.44182727062014        1.98022846175680       -3.11519772568035
C           -3.14317378664310        0.81664816345702       -1.88350031027370
O           -4.00624967103596        0.90919237810963       -2.88194524581653
H           -6.35659663171081       -2.35095225028871        0.40263238657832
H           -6.11485957486584       -1.84797813552637        2.10555358022908
H           -6.96266963159518       -0.76664132493227        0.95461357458317
H            0.50031218108311        1.95116038570428        2.72403746726851
H           -1.20934513855620        2.22142523021735        2.34026125024668
H            0.04740512519445        2.72732874351021        1.19573682334964
H           -0.71789546536862       -1.46778294097719        1.75536033500893
H           -1.62029826531895       -0.27770553472209        2.71037329497989
H            0.10747905617827       -0.54810173703245        3.03237305498193
H            1.80578107310915        0.83574574535474        1.00457991646293
H            6.32319826333240        0.09101051793539       -2.04126649485213
H            5.62007882025346        1.35513671891495       -0.99949449862225
H            4.69672468849538        0.73301277781583       -2.38781860096485
H            6.64480739342835       -1.45261909675188       -0.02033540820731
H            5.99681590271185       -0.15855899033153        1.02023195313186
H            5.25181819773690       -1.77450455790979        1.04475278863744
H           -0.06178338282460        1.67491808934932       -1.09346523084839
H           -4.86785919798029        0.48851741643986       -2.63616709308277
