33
 energy: -58.544893979014 gnorm: 0.000405683961 xtb: 6.5.1 (579679a)
C            3.45372833502951        2.75270789069226       -1.25064563461048
O            2.34393134654332        1.99818661561422       -0.77809984565471
C            2.58686917255960        0.69813550647114       -0.50139599980383
O            3.71279676244048        0.22306880184797       -0.65931716101027
C            1.43609192454450       -0.04583922906275       -0.02245656147990
C            1.53797884674749       -1.36905510409676        0.30242581082140
O            2.68612468999687       -2.05754707626760        0.20016738845264
C            0.36415172808234       -2.16129538850026        0.95384140039181
C            0.23653768332202       -3.53010805212571        0.20570631780211
O            0.43752096611222       -2.23214871719847        2.24219844149975
N           -0.88693668250085       -1.36694716949009        0.47662494424010
C           -0.84204829068780       -0.02083428367244        0.35684539612444
C           -2.17296014932142        0.72968610513960        0.40416264921019
C           -1.92043512700062        2.21742091383442        0.67805680975328
C           -2.87650463641695        0.55267161538967       -0.94840546537642
N           -3.05817910420415        0.21467202873037        1.44867755442686
N            0.22166611050975        0.65974566221445        0.08560674727276
H            4.26138099093775        2.75337818432066       -0.51253106452888
H            3.83145581535527        2.33438221360740       -2.18818734016610
H            3.10078756398136        3.76978008832058       -1.41469075966423
H            3.40426882903488       -1.47387691297841       -0.13921100957611
H            1.13521028352163       -4.11705118512668        0.38925811060371
H            0.10959582683577       -3.37849679599188       -0.86499865561208
H           -0.62381648006016       -4.06568027784689        0.60188063108984
H           -1.73372088998213       -1.73934083011268        0.88041955636779
H           -2.86881990057569        2.75294026747439        0.71172394450750
H           -1.41170345445342        2.34126793175677        1.63444462488947
H           -1.29409018669460        2.64291350973288       -0.10614197207272
H           -3.84955694073198        1.04346372695778       -0.93266301482889
H           -2.27328139026222        0.98714555462698       -1.74585412061439
H           -3.02239802735415       -0.50697353734710       -1.15843619916955
H           -2.54110626588241        0.04728194197778        2.30376143027238
H           -3.48453634942631       -0.65365399889298        1.15901504644314
