43
 energy: -83.824942022444 gnorm: 0.000248709289 xtb: 6.5.1 (579679a)
C            6.90508325925600        1.28622060206282       -1.17218416845284
O            5.70425075054546        1.47140016566047       -0.43049362367205
C            4.74001958897165        0.50151739338622       -0.63096637874402
O            4.95770948566973       -0.43137650724087       -1.40466602463564
C            3.52974719504594        0.69871066178696        0.12594196638598
N            2.58085578674441       -0.29216252420327       -0.08980995277780
C            1.45451790920571       -0.24828861979883        0.52710265634834
C            0.44122695295629       -1.36630460895923        0.35158705227842
C            0.71650053115738       -2.38867082744305        1.46860910627318
C            0.61320954708677       -2.00891405636960       -1.03278231744902
N           -0.88926092558291       -0.77502116396665        0.51504512452928
C           -2.03769191711784       -1.60971650685939        0.30628420729550
O           -1.99374477499060       -2.85896738717571        0.44420820458136
C           -3.17159767618267       -0.85879353877325        0.00474483035997
N           -3.25981786741850        0.50909531178260       -0.16987157467072
N           -4.54878836323489        0.71140716848430       -0.45212531957374
C           -5.02166189496784        2.05428133686600       -0.69401818909211
C           -5.25571865585762       -0.39451627715310       -0.46486596617752
C           -6.70376475941078       -0.54677722442152       -0.73742540489715
O           -4.46131872072400       -1.44311051623453       -0.18859832471875
N            1.14346882408413        0.73802389438929        1.42208631551379
C            2.00207141147695        1.80818162996679        1.71735853683336
O            1.62840862520427        2.67179335913507        2.52652643171993
C            3.24545604992779        1.74974312669957        1.02141153219260
O            4.11403267447963        2.77435244830740        1.29382440732546
H            6.69595164365515        1.27151718334296       -2.24659668459120
H            7.56012613177030        2.12311193560921       -0.93651183864941
H            7.39072979218477        0.34588873109005       -0.89192262352829
H            1.76119702785443       -2.69719369928589        1.42760064854682
H            0.08459062148470       -3.26724442173591        1.35445834169785
H            0.51881034184697       -1.93494367680607        2.43949811458658
H            0.38766267201644       -1.28086224200802       -1.81158216780506
H           -0.05464817907953       -2.86244211814053       -1.13829918226735
H            1.64362722349123       -2.34293122710409       -1.15395469283370
H           -0.97929423024667        0.08673854944362       -0.01374358998517
H           -4.16426621241042        2.72255431220844       -0.67160911043646
H           -5.50807214050166        2.09944098621585       -1.66691754947863
H           -5.73533406897846        2.33481879701976        0.07958703086928
H           -7.28864491847008        0.09062973712053       -0.07400503595914
H           -6.98983129123417       -1.58483407759323       -0.58304276238548
H           -6.93677624607216       -0.26272510944427       -1.76467382027240
H            0.24296353479461        0.73028673391202        1.87689801340201
H            4.93801426156884        2.67608226622591        0.78970878231580
