42
 energy: -82.937224527000 gnorm: 0.000585707560 xtb: 6.5.1 (579679a)
C            6.06242192700855       -0.87819247979772       -2.21426926933976
C            4.76627492305544       -0.17020587739556       -2.13442461621413
N            4.31201679141465        0.75054097371438       -2.92549540763194
N            3.07704090570172        1.09442864952203       -2.45927133206344
C            2.85483397911340        0.36285934606738       -1.41177626171247
C            1.64343751445849        0.35275165670816       -0.54813977900081
O            0.69360635408249        1.09200330846559       -0.77185403963046
N            1.72570212765133       -0.54233964049687        0.44807185496262
C            0.66926916223441       -0.73498097552438        1.45365699164351
C            0.54078681454301        0.52911521901083        2.30550591734888
C            1.07307671267952       -1.93429641036616        2.31287002996649
C           -0.63001670067687       -1.05580304347881        0.72044505292618
N           -1.57743995114383       -0.14747508378587        0.75535228991344
C           -2.73563974877104       -0.41285780478816        0.06875792774493
C           -3.74583081841024        0.58443160895571        0.01423523928853
O           -4.85295102783026        0.63321701396426       -0.40322590587770
O           -3.25742156727057        1.90619877555419        0.70131192787024
C           -4.36790867027364        2.76827655088979        1.03658167814285
C           -2.18728569735551        2.58747300022891       -0.00864241994287
C           -2.88619865139343       -1.62784005086038       -0.57651830503391
O           -3.96167864060857       -1.98795782924974       -1.26689318958667
C           -1.78313195033326       -2.60910196880696       -0.54740008373952
O           -1.95513440078212       -3.68492981639843       -1.13847036337906
N           -0.66650300265103       -2.24373849655569        0.11414849169145
O            3.89324401792769       -0.46273478572948       -1.15599171756878
H            6.58739314740739       -0.80044022157338       -1.26304720411001
H            5.89602650596231       -1.93576071915292       -2.42086658923040
H            6.66901197093321       -0.44544404787895       -3.00601516435358
H            2.58229870411474       -1.05673733113265        0.56740419188874
H           -0.24496361909959        0.38957012364666        3.04605723860580
H            1.48159429375737        0.73306012553322        2.81376475718206
H            0.28110989221568        1.38163969750957        1.68083457768199
H            1.13642230992763       -2.82749454803273        1.69168329045647
H            0.32457147435307       -2.09711365553843        3.08681956704452
H            2.03631996293447       -1.75498532595795        2.78671641294641
H           -5.07143279640900        2.17271317957399        1.61407486623599
H           -4.83675617653684        3.14734103559287        0.12770247214942
H           -3.96883320656225        3.58134275583933        1.63739916041662
H           -2.55428454807798        2.95547310061129       -0.96702658967024
H           -1.86529488035940        3.41068561281519        0.62503690741809
H           -1.37791311396553        1.86880184946044       -0.13610387018062
H           -3.77984032293600       -2.89149447115262       -1.61456273532070
