42
 energy: -83.666537554176 gnorm: 0.000767464422 xtb: 6.5.1 (579679a)
C            2.81297737093875        3.20352586418311        1.68143926137735
O            2.62402013494723        2.02091140369295        0.92052680263929
C            3.66351102773400        1.68429280680574        0.09283431631224
O            4.65319121835409        2.40050090949750        0.03366324106462
C            3.43448075981896        0.44354428203659       -0.62474691798136
N            2.20358268456753       -0.15174127791195       -0.41046880072987
C            1.91295295483557       -1.27240075182680       -0.95859143487469
C            0.57322443475614       -1.94821118077700       -0.71266920933704
C            0.80845930327614       -3.21370364292773        0.12961193829875
C           -0.09177408630852       -2.31029663553005       -2.05411412177884
N           -0.24202058882191       -1.00091642639534        0.03414538197701
C           -1.60489151967405       -1.23956530315173        0.26986559139481
O           -2.07758723253879       -2.39464556752233        0.28288034498948
C           -2.31030118816602       -0.04169655473149        0.53787978488814
N           -1.79859472901316        1.17922678263427        0.48111330989246
N           -2.69416476231100        2.08228894668012        0.75807053574948
C           -3.95572679683353        1.37786665632724        1.03441602820972
C           -4.40882849361894        1.66843558241270        2.47641320383588
C           -5.03153875547529        1.82168070478306        0.02807334233533
O           -3.67579455336145       -0.00526713228348        0.87691081102977
N            2.81819368000659       -1.93338948004543       -1.76942442337281
C            4.06100078601337       -1.45226055604289       -2.08377274332524
O            4.79814477158144       -2.10448833723091       -2.82274158952140
C            4.42884868020929       -0.12378223568715       -1.46422942060976
O            5.54776821837282        0.36399888028518       -1.71385536845131
H            1.94327078771748        3.31550532242544        2.32845684998280
H            2.90205876212788        4.07850664194671        1.02895278025726
H            3.71763769821012        3.13098248090431        2.29424895544802
H            1.49090523577215       -3.88565331750821       -0.38797851260690
H            1.24133513244257       -2.94206702140136        1.09261808314672
H           -0.13335424469384       -3.73307996389642        0.29828862714699
H           -1.05914309239233       -2.77654339939845       -1.87376652680012
H           -0.23439601972452       -1.41360309263306       -2.65617489323491
H            0.52771126984611       -3.01163961109929       -2.60931494144558
H           -0.02474973617723       -0.02885991793537       -0.18050001044865
H           -3.63570759195922        1.34086016158229        3.16994356421557
H           -5.33241022545420        1.13603526263757        2.69668426410927
H           -4.56999093160668        2.73700245390107        2.60252780251314
H           -5.20298264568185        2.89197214750654        0.12169443587803
H           -5.96335957363082        1.29001361078710        0.21230913216846
H           -4.69114447993420        1.60276430324217       -0.98278193854173
H            2.57518533583743       -2.82033379834059       -2.17843553580229
