38
 energy: -79.612565727307 gnorm: 0.000680427263 xtb: 6.5.1 (579679a)
C           -5.63245016065220        1.56146796682316        0.86667190076656
O           -4.35571340416915        0.95672945199222        0.67799213740507
C           -4.16494801315094        0.32837738554340       -0.49063883864383
O           -5.03999273123956        0.28613640634256       -1.34571488241693
C           -2.83858129582834       -0.28649988082127       -0.63324364970790
N           -1.96882698550578       -0.16054844420655        0.41551949454176
C           -0.78935984291195       -0.72360178585610        0.26755386007088
C            0.15985212463472       -0.63936412777017        1.46202636202424
C            0.07392117191387       -1.96224797653157        2.23062347189157
C           -0.19375243826427        0.53667774736943        2.37425254662919
N            1.53925626897699       -0.50982751129519        0.97683662729757
C            1.97530530976687        0.51956608155122        0.23480749811629
O            1.32921510724499        1.50635610925443       -0.07811524355376
C            3.39248336574351        0.31141057061091       -0.18529195602766
N            4.08872138227409       -0.77329619984893       -0.02231639007158
N            5.31504440017270       -0.54115955637337       -0.57531275961881
C            5.28606520225208        0.66952515899928       -1.04010023966066
C            6.37623636316426        1.40006529055825       -1.72361932164573
O            4.09920590606855        1.25932907563703       -0.82915426434958
N           -0.34698817659085       -1.41567630060383       -0.77482295689648
C           -1.14512302601898       -1.58459688861344       -1.86681087806387
O           -0.77086148668159       -2.21972635879812       -2.86693171856764
C           -2.48016709509553       -0.96934224443954       -1.77528870608553
O           -3.29859084361018       -1.12038353960617       -2.84183142045298
H           -6.42005636423680        0.80456802005916        0.82654139802539
H           -5.81802408999452        2.31038574541831        0.09212681871024
H           -5.61689393241886        2.03305231538494        1.84753285088050
H           -0.94187435863595       -2.10428490489997        2.59644703955604
H            0.32847051732114       -2.79203840237563        1.57118076083711
H            0.75527031183016       -1.95858533831754        3.07993797163601
H            0.50840651892902        0.59461883186434        3.20420263284469
H           -1.20013570372668        0.39253325063460        2.76456557937798
H           -0.16949681420639        1.47230087114732        1.81728005470488
H            2.18336842511676       -1.25668633456178        1.18230054623565
H            7.23078161214130        0.74131433088722       -1.85455596212062
H            6.67376878388257        2.26407071146985       -1.12956478762777
H            6.03730562810708        1.75933963205430       -2.69487688302153
H           -4.16084163660298       -0.68995615868377       -2.67179369301469
