42
 energy: -83.004774598221 gnorm: 0.000213792291 xtb: 6.5.1 (579679a)
C           -3.19870447312521        3.26653997749464       -1.63778819246799
O           -2.95798769180388        2.37170608744012       -0.53931883263972
C           -2.37632176390991        1.22525605731663       -0.81428295411128
C           -2.18671390399589        1.20007371342855        1.73587724565438
O           -2.05056063886813        0.85179647656466       -1.90925004672778
C           -2.17865615169106        0.35530365482548        0.46279665532163
N           -0.89201337111962       -0.28177330539736        0.30471217920113
C           -0.78159596282128       -1.39182154420879       -0.29764164989602
C            0.58845657831673       -2.00132564673674       -0.52387383359981
C            0.69991800232778       -3.31404783547524        0.26486000054183
C            0.82656612052693       -2.22563557274794       -2.02389053107961
N            1.55768145531279       -1.03310290281227       -0.01917053704806
C            2.88798096128621       -1.22805460597475       -0.03029660427965
O            3.45500759340820       -2.23336659876354       -0.42963685993872
C            3.64255087999215       -0.06417722779315        0.50279730582822
N            4.92561946171862        0.03741723584403        0.65976417620681
N            5.16442438006946        1.28461685877746        1.15498786167572
C            4.01257053826323        1.86840365754186        1.26802542383405
C            3.73733088938982        3.23785636399471        1.75392239436920
O            3.00671508675832        1.06910790142369        0.87397801223361
N           -1.86310802042363       -2.12955422987735       -0.75969601244719
C           -3.16251252920543       -1.85105020626513       -0.45678539387721
O           -4.08181423462791       -2.54101423047033       -0.83310929687969
C           -3.35152283762242       -0.60748736086748        0.42051199244204
O           -4.38667907259627       -0.39966204829651        0.99601644241694
H           -3.84299512889292        2.78342092235323       -2.37481874148624
H           -2.24998208931451        3.54111012559548       -2.10209963900590
H           -3.68562850261905        4.14263462486187       -1.21609316000798
H           -1.95084168460486        0.56535101253979        2.58766141646480
H           -1.44012004464909        1.98618926202784        1.65949089790752
H           -3.16949061572310        1.64457404595041        1.87996215114883
H           -0.07230939138611       -4.00755925694742       -0.06103565425721
H            1.67488718594119       -3.76645424724708        0.09216105896021
H            0.57797320155547       -3.11881544665536        1.32901391054661
H            1.83194784567511       -2.61298560505411       -2.17939306432293
H            0.71643970185037       -1.28520568642810       -2.56164965863346
H            0.11271062451624       -2.94730120415374       -2.41433854024149
H            1.17839349883092       -0.16620975381857        0.34024176750144
H            4.67487529586275        3.74280900179184        1.97398233428166
H            3.12493854735559        3.19808053572438        2.65446985410063
H            3.18817717412397        3.79721804137919        0.99721856733616
H           -1.70560791409327       -2.96286304087183       -1.30647444502465
