39
 energy: -79.829279357215 gnorm: 0.000597925724 xtb: 6.5.1 (579679a)
C            6.38504811628366        1.86261351988115       -0.34000343519626
O            5.24073128996012        1.32045080031592        0.32550381170015
C            4.22881681625674        0.93899257136112       -0.44984597453173
O            4.24557280618021        1.03209338133697       -1.65619925985650
C            3.07042007964341        0.38693769285833        0.31489966450924
N            2.02476466831964       -0.00620954043110       -0.48657470716525
C            0.95327150176338       -0.48913984951542        0.03739384154499
C           -0.18219666926267       -0.96204494967000       -0.84404499353212
C            0.00123632374180       -0.43673909377064       -2.27081535882324
C           -0.20691084032547       -2.49798120109459       -0.81435128192132
N           -1.42407507420746       -0.42963046961892       -0.27120974995341
C           -2.64668427319006       -0.69049723074274       -0.78901952069414
O           -2.88294966026401       -1.46631102066302       -1.69611624794385
C           -3.69129637741461        0.10052039903901       -0.09006703833235
N           -3.48965248552521        0.97944047393776        0.84590658072874
N           -4.71131571090644        1.47229775562434        1.19156074177067
C           -5.58111355951164        0.86366414149165        0.44219665874818
C           -7.04880018670916        1.04920966915851        0.42970959282554
O           -4.99793338820388       -0.01268712663429       -0.38856236620102
N            0.80505968324650       -0.64124934030116        1.38921181559390
C            1.77981019622427       -0.28839755744707        2.28921226968567
O            1.64820846105867       -0.42287098736266        3.49655097628108
C            2.98650158504539        0.26433529239611        1.67519239699513
O            3.95222367854199        0.61784823609395        2.52976298471888
H            7.11856713414741        2.08412237529029        0.43241127312129
H            6.11020432488082        2.77495486988076       -0.87488996658829
H            6.78722050610480        1.13495717922865       -1.04904941058027
H           -0.80337794297401       -0.80086689851020       -2.90648326649230
H           -0.00539540231945        0.65217132075461       -2.26878846761526
H            0.95551410308143       -0.78401230674143       -2.66393034344331
H           -0.42802442134206       -2.84720644706846        0.19230664687371
H           -0.96655359589502       -2.87493034848830       -1.49609250067580
H            0.76603822577850       -2.88103447704053       -1.11851071132386
H           -1.35674495027479        0.30720237915999        0.41422204964945
H           -7.35948153481579        1.49634841394517       -0.51526363862345
H           -7.54691206212807        0.08501146304072        0.52667738865058
H           -7.34200572500584        1.69979348359062        1.25016261675395
H           -0.04439579272140       -1.03218599248078        1.76718594546377
H            3.65661115274670        0.43063541920221        3.43975198388521
