47
 energy: -79.476798192034 gnorm: 0.000271177696 xtb: 6.5.1 (579679a)
C           -4.31982104253493        0.44480941858185       -2.69314775273172
N           -3.08291173492654        0.79202646020012       -1.98523877621030
C           -2.67929973859749        0.19952559533900       -0.82312998412386
C           -3.51879082064387       -0.84515061479206       -0.09774308681964
C           -2.69631812197834       -1.44433661638786        1.05491946035486
C           -4.78099557014775       -0.18504453005429        0.47440176296787
N           -3.89483538116657       -1.91368868074432       -1.01249032265673
N           -1.56692220284235        0.53778217647717       -0.24038956688884
C           -0.76695533283765        1.50398514723223       -0.77331695742664
C            0.48704221242327        1.80822914846295       -0.05635991927418
O            1.29194931421715        2.65356269832759       -0.44752148320087
N            0.67606937260182        1.09027865165840        1.06948230461737
C            1.86950807239304        1.25757991655836        1.88023941160412
C            2.89459255551371        0.25030751648288        1.45816403805096
C            3.39364987692622        0.27809421656556        0.13327990119014
C            4.31386131377328       -0.63048004906285       -0.28515092255184
C            4.94230794064838       -1.55218319792973        0.68526597121352
C            6.31331169369429       -0.89942178896960        1.06357964043191
F            5.25142970497889       -2.75748597426868        0.11977028721367
C            4.20863769422871       -1.71218738519721        1.95781700475676
C            3.29675656191763       -0.77799087141711        2.34194966426385
C           -1.11269496173738        2.16285351830727       -1.92587671667828
O           -0.37514638804068        3.12249446977818       -2.48577423055729
C           -2.35702831129409        1.81289679452329       -2.60463682727634
O           -2.77018313936842        2.34006129589420       -3.62614091865989
H           -5.08917570626255        1.18056903600340       -2.45744927862918
H           -4.64370412187793       -0.55051210776527       -2.40425973734389
H           -4.11736989757850        0.46942697719182       -3.76460668028098
H           -2.44586021759923       -0.67108635249684        1.77870261794968
H           -1.77489188764677       -1.87780497319140        0.67195112465207
H           -3.27697690876746       -2.22180018047814        1.54791148884471
H           -5.43828222863315        0.16273812214500       -0.31987879772409
H           -4.50233710510697        0.66223426708271        1.09963294787003
H           -5.32285385866608       -0.90721577598561        1.08310382582580
H           -4.54283558436562       -2.54454255361644       -0.56428127670673
H           -3.07970726120422       -2.43080685798633       -1.30720947263547
H            0.04000408552493        0.33793812174798        1.28881169244481
H            2.25027844738445        2.26928264800192        1.69551890399510
H            1.60494687657838        1.14460855395754        2.93208120547589
H            3.00160444323492        1.02006059572236       -0.55332737251525
H            4.68529953155962       -0.64718151297431       -1.30281172907992
H            6.16102922552828        0.06875897551166        1.53121368985121
H            6.89533868683822       -0.78865606904430        0.15153068082263
H            6.82573980471226       -1.57021687689502        1.74910176524153
H            4.48817758811423       -2.53988751930826        2.59838575400404
H            2.82506748916410       -0.84509113619845        3.31536234223257
H            0.43929603187422        3.26894830300872       -1.95143767590085
