33
 energy: -58.509920198636 gnorm: 0.000869305236 xtb: 6.5.1 (579679a)
C            4.74811143011469        0.97914005433896       -0.91516276241582
O            3.71555501818743        0.12993892535975       -0.45587006697035
C            2.45596194160835        0.76192006796068       -0.31762560933482
O            2.36993693165265        1.98286540970284       -0.60464767346213
C            1.47298061648729       -0.09766990676832        0.13654504672438
C            1.63807683069978       -1.53284939504658        0.45260989590388
O            2.77277127932826       -1.92967456136317        1.20311211354357
C            0.62464172872958       -2.39550211963448        0.21735871342257
O            0.39335983414364       -3.60985191554546        0.45341001596500
N           -0.52866587227837       -1.67290500484941       -0.47743626846865
C           -0.87055864281585       -0.44687005353275       -0.02191208495424
C           -2.35044089602125       -0.07275102179176        0.05812666877253
C           -2.68418763537060        0.95061636985185       -1.03732589318303
C           -3.26299893861192       -1.29609037746392       -0.12551227466082
N           -2.63217375385601        0.52068056665393        1.36915271850822
N            0.12113986644865        0.37582125083626        0.24819718644066
C           -0.05331543558885        1.76274393452360        0.67326473373009
H            4.93499962482895        1.79928610823998       -0.21042871738537
H            4.50287337850761        1.41267929493628       -1.89332493615365
H            5.65159234248836        0.37452069919803       -1.00933304818125
H            3.56375519187863       -1.57791501757584        0.76802753311575
H           -1.29346023691050       -2.31766974238354       -0.61191790289878
H           -2.40214811767519        0.55617982485827       -2.01315823030751
H           -3.75497766784295        1.14854452503897       -1.03771013419905
H           -2.16313386334386        1.89132069735303       -0.87235324781360
H           -4.29310183455947       -0.98704900769222        0.04404116620809
H           -3.01985029995109       -2.07656225716544        0.59427719908306
H           -3.19306393203281       -1.69639111351302       -1.13587634875575
H           -3.55384935642374        0.93058445411428        1.34264897615903
H           -2.65017515521062       -0.20740900385803        2.07194885075479
H           -1.00089091296052        1.88593486671662        1.19205969928561
H            0.75946923653270        2.03156160435996        1.34776295613690
H           -0.01823370018212        2.42281984414026       -0.19520227460855
