33
 energy: -57.874925645500 gnorm: 0.000879387033 xtb: 6.5.1 (579679a)
C           -1.74448740168590        2.18548145562397        0.54143717636124
N           -1.92150933462224        1.33444775424937       -0.66105894214414
C           -2.05575331114337       -0.14464328803795       -0.41725005554768
C           -2.47164454901902       -0.76483252489342       -1.75559347645435
C           -3.09752212516061       -0.41346389431787        0.66525515380120
C           -0.67271757594556       -0.62588042492461       -0.04627207837545
N            0.32488856658717        0.16242040541670       -0.24577343719432
C            1.60724418198185       -0.25437764876496        0.03907806484177
C            2.63060707877706        0.80336778821682       -0.22076815333753
O            2.33590116050841        1.92038392878755       -0.58108177456794
O            3.87571274517987        0.39811901395566       -0.01431137083952
C            4.91060542638782        1.36279439661809       -0.24236863272440
C            1.82904958696905       -1.51563518757388        0.51854837653837
O            3.03111945031403       -2.00499113622704        0.81927592806941
C            0.70438787023025       -2.42824314409818        0.74116601470762
O            0.83985636251890       -3.56118548059507        1.16552224022228
N           -0.52867287926827       -1.89238388779823        0.43023495352161
H           -2.65170661952849        2.15571992446797        1.13702470708921
H           -0.89211628666305        1.81369874164400        1.10522576800783
H           -1.55672861901285        3.19873042597985        0.19305439867507
H           -2.73352947892730        1.65905388986669       -1.17705343346356
H           -1.08865114743177        1.45463783439929       -1.24711226451677
H           -3.46389631389680       -0.41623950512997       -2.03588134666100
H           -1.76061513662624       -0.49302990239084       -2.53448543221110
H           -2.49288263258230       -1.84886825810240       -1.65902398958187
H           -4.00859665221768        0.14117600429989        0.44841770078412
H           -3.33734252901253       -1.47535181817047        0.67471965384996
H           -2.72605916338485       -0.13128007693487        1.64856852530522
H            4.90867477711949        1.66939321712382       -1.29106554751364
H            5.85083537620448        0.87618279887717        0.00988868637853
H            4.75105962260734        2.23822531245378        0.39146624035232
H            2.93647863099851       -2.91868310962106        1.14813630274506
H           -1.33199008025470       -2.48474460439935        0.57372404388320
