43
 energy: -83.120479125058 gnorm: 0.000354700870 xtb: 6.5.1 (579679a)
C            4.58289783171352       -0.70581211613594       -3.65579821075384
O            4.43895941297107       -0.38394322800652       -2.26817620707968
C            3.19910313743260       -0.32700238550422       -1.79595248890143
O            2.21536736634689       -0.53110601604944       -2.47191072085702
C            3.12997498530030        0.01714003365732       -0.34457877455093
N            1.84119648160835        0.08532891108764        0.13171824694109
C            1.61351248935691        0.37726946565389        1.36488564227592
C            0.18559186033003        0.45213351215077        1.86389274488202
C           -0.05271781658146       -0.58572166432401        2.96816042422654
C           -0.13595888269125        1.87143294106389        2.34965264236776
N           -0.64948147863342        0.13186032595742        0.70255725610258
C           -1.97878715039345        0.09950313285119        0.72386821241368
O           -2.70964876803133        0.31636205930767        1.67373025562805
C           -2.53008986205856       -0.24945395534957       -0.62400682599993
N           -1.91237295453430       -0.50376278716933       -1.71359210255685
N           -2.83173451598524       -0.76383690029796       -2.69220136906643
C           -4.00552869244998       -0.66729465995912       -2.19716912382548
C           -5.31193443827868       -0.85241493520352       -2.84680479733912
O           -3.90613804133786       -0.33289510697718       -0.84048302371978
C           -4.96320377537768       -0.09462856408459        0.14443968281933
N            2.61923537610486        0.62700278625244        2.25100767711270
C            3.94906786439367        0.58336357058226        1.89750386008475
O            4.84901741324807        0.80137453144016        2.69124587163349
C            4.18626206199909        0.25594859851369        0.49055957073032
O            5.46764705274149        0.21384337270809        0.11906260213283
H            4.13745099964468       -1.68195166592929       -3.86161347487132
H            5.65136081719245       -0.72458616075784       -3.86162793944449
H            4.09030127218178        0.05299438488550       -4.26831630503337
H            0.15549709475516       -1.58618946299873        2.59262918908518
H            0.59948474491710       -0.37842983525964        3.81387608898600
H           -1.08710044411118       -0.53590648380192        3.30222476117814
H            0.51291623932409        2.12898642510621        3.18393925667677
H            0.01611022075553        2.58636640660569        1.54267790209719
H           -1.17091210310074        1.92065439036403        2.68185651198797
H           -0.14361379175587       -0.06841319626733       -0.15928256241230
H           -5.89480285167483        0.06795821911266       -2.79814245300479
H           -5.14719457113334       -1.12349992890036       -3.88839143969146
H           -5.87718611129318       -1.64099380646971       -2.34952136997132
H           -5.90716361846405       -0.25507945462440       -0.36628670942689
H           -4.85874584120099        0.93128734818383        0.49061081133104
H           -4.81643410875102       -0.80430877851679        0.95567240837161
H            2.41802702899750        0.85690001970087        3.21238381182431
H            6.03176806652093        0.41952365740301        0.88758146761589
