42
 energy: -83.005166747727 gnorm: 0.000679954027 xtb: 6.5.1 (579679a)
C           -3.00167872364776        2.65231359688577        2.07538747555841
O           -2.43292777768449        1.57399983100149        1.31879814032093
C           -3.24204456234659        0.55962554224597        1.03877231678610
O           -4.39873181445982        0.53106678417113        1.42189158485030
C           -2.63479712618966       -0.57484946665858        0.30619849508812
C           -3.24858547949287       -1.80108596869220        0.36056742254042
O           -4.42026971038395       -2.02505671086494        0.94903351014886
C           -2.59429206227650       -2.99234844436840       -0.23091383936744
O           -3.14394488077236       -4.08106752690108       -0.29969550094230
N           -1.31266182595639       -2.78428700364030       -0.67420489019355
C           -0.76838990641412       -1.60486145851453       -0.73584588440169
C            0.64870336780022       -1.60261944807318       -1.30540552772338
C            0.61165395988022       -1.36666645524463       -2.81927526052920
C            1.30560715934616       -2.96553687415893       -1.03015213035058
N            1.46411973129074       -0.56508637667253       -0.67724230606317
C            1.59156010938727       -0.48328545645512        0.66558964236428
O            0.99100811105044       -1.18535298986703        1.46216984216257
C            2.52527857366017        0.58666990246829        1.09111947174071
N            2.89463491234424        0.88538577667885        2.29759356587826
N            3.75163560466265        1.93979975546058        2.19657995889041
C            3.85111906910492        2.22194679177037        0.93491892705914
C            4.65002373504378        3.29354930164563        0.30280470008582
O            3.10105975437431        1.40129161816840        0.18039263607003
N           -1.40636254462244       -0.47243606836137       -0.35636102481898
C           -0.92788933669906        0.85759836801003       -0.72781757415070
H           -2.22628215655564        3.41009617230034        2.16043914062592
H           -3.30169888511559        2.29594362732224        3.06309994443434
H           -3.87161906780531        3.05305035080376        1.55166421875715
H           -4.80675463394166       -1.18816661340625        1.29468533705003
H            1.62073221925275       -1.42767973898201       -3.22241438242326
H            0.19906545746885       -0.39225822553278       -3.06805253729603
H           -0.00299065150143       -2.13491605705287       -3.28663457560720
H            0.77439337886026       -3.74604787337529       -1.57177263304920
H            1.27880958037810       -3.19204705346124        0.03472325278048
H            2.34003949454020       -2.93590532728446       -1.36605497990621
H            2.04549768196998        0.00578394976336       -1.26487968980726
H            5.34942211354046        2.86295210551662       -0.41409192326444
H            3.99162783391756        3.97412872587730       -0.23785266644930
H            5.19722348915199        3.84328253742945        1.06550379697085
H           -0.37210747776767        1.30719474232343        0.09359581235269
H           -0.28549319902577        0.78694196557465       -1.59704691049192
H           -1.78369351436326        1.47893969215196       -0.97981495567394
