42
 energy: -83.656349284394 gnorm: 0.000211047336 xtb: 6.5.1 (579679a)
C           -7.35703364555628        0.05113253870141        0.47782768909247
O           -6.07565165949848        0.43904801499031       -0.00411144342951
C           -5.04317701749557       -0.34880517382598        0.35195475517053
O           -5.20732703389058       -1.33976351486127        1.03901233233258
C           -3.73572788192928        0.11451489907779       -0.16030059294660
N           -2.66863315462032       -0.64451184093811        0.23591685065788
C           -1.46618490671885       -0.27509420477976       -0.15985933968001
C           -0.32074135132505       -1.15741812636584        0.33547828584448
C           -0.35603492738694       -1.16219187642250        1.87633945937318
C           -0.54070381222520       -2.58133096777365       -0.20245919435119
N            0.93378766448590       -0.61995162729618       -0.16778578752995
C            2.16899033067329       -1.06436315928244        0.30212010640495
O            2.30907044503011       -2.19066358849414        0.82468499802213
C            3.20288875115382       -0.12139721457494        0.06152888765807
N            3.03692944762636        1.08110947431838       -0.46439523497626
N            4.16447891115376        1.73428026419515       -0.52597273328029
C            5.20473561161587        0.86048603240414        0.03792611321848
C            6.28562407598208        0.58347768853178       -1.02198670761893
C            5.82481028978965        1.52678779596918        1.27996871625049
O            4.55171293922107       -0.34629769590745        0.40238949519246
N           -1.16262198383297        0.77243492901671       -0.92559942591919
C           -2.16427553047270        1.56085339701674       -1.37267901475853
O           -2.00225863049714        2.56255517876109       -2.10351279641122
C           -3.52374261276806        1.20829697213011       -0.95957369583651
O           -4.49027542109247        2.03610220224037       -1.42593914159946
H           -8.06705055707521        0.79800265464065        0.12750559386751
H           -7.36064771284558        0.01650453736358        1.57101085002500
H           -7.63063510807037       -0.93442720818315        0.09062336376402
H           -1.34797397923710       -1.46611337039463        2.21017495697528
H           -0.14767104536669       -0.16275841192417        2.25885649897656
H            0.38073169896206       -1.85671530993335        2.27764222823752
H           -1.52764072056204       -2.93351990641961        0.09726874330489
H            0.21497912223648       -3.26020219577693        0.19089012589131
H           -0.48265903451225       -2.57999654443282       -1.29130030199653
H            0.89056721776434        0.37042027185865       -0.40358213222775
H            7.04889621168231       -0.08046389442479       -0.61999385085865
H            6.74773680453396        1.52000622617503       -1.32730008853711
H            5.82684535980842        0.11377122706641       -1.89084556730552
H            6.58408309438868        0.88074143031521        1.71713358612216
H            6.27720285539889        2.47578674342996        1.00000297888489
H            5.04523042010920        1.70901455644995        2.01827972112232
H           -4.02063152462897        2.71065779737368       -1.96272128713608
