42
 energy: -83.634938114227 gnorm: 0.000262377092 xtb: 6.5.1 (579679a)
C           -5.94378369567354       -1.50526821927248        0.38715691361615
O           -4.73555667167158       -0.76902746163880        0.29420141619556
C           -4.75510244810566        0.29333721252725       -0.57575607547549
O           -5.77449374941962        0.54883300688110       -1.20237675803532
C           -3.48734885112526        0.99456207628231       -0.62666225333793
N           -2.49737021965696        0.48600054508417        0.19915571732125
C           -1.33358852972459        1.02302370285031        0.22259238234404
C           -0.25288522550681        0.54817729181422        1.17806814664509
C           -0.33180896607114        1.45623207846058        2.41903983653995
C           -0.51273753906842       -0.91551940592349        1.56606984997877
N            1.02921650170611        0.71837761384735        0.48907711802113
C            2.21732183550434        0.19164810233718        1.15460431465460
O            2.33049786964298        0.25917084811999        2.42027353347895
C            3.10412447394968       -0.42192220538456        0.31936774914544
O            3.02390249259969       -0.40009143769202       -1.10643395984181
C            4.25129718316169       -0.73683637111964       -1.51648760240047
C            4.50977590516160       -0.81578716143913       -2.98247667122962
N            5.12873450773116       -0.96837250285809       -0.61618495024315
N            4.48930667825429       -0.76260469428068        0.65909165854261
C            4.58339358818045       -2.01740564348908        1.42155126410501
N           -1.02548770962224        2.12160124121054       -0.55327838342110
C           -1.90363071486898        2.73318389743185       -1.40121705889192
O           -1.54559739381792        3.71349343148145       -2.05738349684823
C           -3.28870588173946        2.12852866084474       -1.45790675492634
O           -4.13928533156071        2.64845535343195       -2.20776232665406
H           -5.77192905304739       -2.31681765990171        1.09338834788234
H           -6.22525356780051       -1.91955522921069       -0.58675134023052
H           -6.76112399316334       -0.87171326247790        0.74781401843799
H           -1.34698246764493        1.44331346483282        2.81702698620499
H            0.35334029176186        1.11433712768584        3.19258501358018
H           -0.07189912330475        2.47892298184946        2.14577789773127
H           -1.52664694174981       -1.01785904725226        1.95322853758793
H           -0.40711360351981       -1.55912167011512        0.69280884675530
H            0.19503285607369       -1.23323923042677        2.33058489068154
H            0.96837203636457        0.29898187073349       -0.43607269359269
H            3.83276066383410       -1.53565868440403       -3.44163574161053
H            5.53744383853836       -1.12439625191307       -3.15785429017739
H            4.33901675985362        0.15472719960656       -3.44857455493009
H            5.63540826503399       -2.24872689236064        1.58501547118619
H            4.10340678341355       -2.84853639726273        0.89429042067162
H            4.08981039418315       -1.85439961607685        2.37966042242083
H           -0.08383324707317        2.48795533716763       -0.50857884188569
