42
 energy: -83.000421719202 gnorm: 0.000831578512 xtb: 6.5.1 (579679a)
C            5.51315265910622        1.86334006015079        0.06942883833773
O            4.19706327409428        1.29953944260428        0.06067240052946
C            3.93763792094990        0.37699461649803        0.97513498783124
O            4.75754796615862       -0.00024744008398        1.79462315114313
C            2.55831095352577       -0.15864929018691        0.91381173270209
N            1.72622584540675        0.36118790306005       -0.04773835948939
C            0.51691346434493       -0.07750334522581       -0.12050896002350
C           -0.45231794145297        0.51333034095861       -1.12765535512115
C            0.32523804079683        1.27082394189547       -2.21682867157421
C           -1.33908496238118        1.52940045459322       -0.39634073632002
N           -1.19651848162836       -0.59932863717282       -1.74804678755943
C           -0.42591751230753       -1.41438440030817       -2.70025377782859
C           -2.53590904241303       -0.80608834500046       -1.82231804570483
O           -3.03429595444295       -1.45954543595239       -2.72761649247156
C           -3.41633501600680       -0.37357854593917       -0.69380608893795
N           -4.62624652020584        0.07596668660135       -0.77522342468838
N           -5.11357601925522        0.13228921749837        0.50160172255380
C           -4.17899686363358       -0.30937931942144        1.27858000968624
C           -4.21293210744729       -0.45878309188944        2.74993741408255
O           -3.07284614379155       -0.65035883177987        0.58582867986586
N            0.03408736746240       -1.03763960906409        0.71616326961304
C            0.76732206192560       -1.64260101572653        1.71841103660968
O            0.27498575752555       -2.49934850171833        2.42964230722144
C            2.14153093710291       -1.12846154433952        1.79362040637143
O            2.91138404330596       -1.65518088308230        2.74531173334068
H            5.57289416920670        2.52394419560416       -0.79297737533713
H            5.66997243976578        2.42653173220704        0.99208204159010
H            6.26117791069263        1.07076996201397       -0.00315557041635
H            0.83003624445163        2.12046845031799       -1.76024407984788
H           -0.36216554913121        1.63112507494120       -2.97965517123928
H            1.08338017286216        0.64273723270997       -2.67813716750559
H           -1.69590484716445        1.14152309322161        0.55291362577349
H           -0.73895565719112        2.41397513098191       -0.18699488620238
H           -2.18353601526996        1.82218263655917       -1.01734956677285
H           -0.92918652294742       -1.33516857217824        0.61781104440999
H           -0.45016036832222       -0.97516335559582       -3.69827395195495
H            0.59944716833368       -1.49365711445630       -2.34721553063143
H           -0.87334604441218       -2.40719774406095       -2.73783628438494
H           -3.47122239732397        0.19581463136192        3.20742165165733
H           -3.97405596134782       -1.48564728445189        3.02609669479630
H           -5.20180721003270       -0.19937968854515        3.12017076026998
H            3.80700574108726       -1.24465380760023        2.72891177562361
