42
 energy: -83.623776553379 gnorm: 0.000513828172 xtb: 6.5.1 (579679a)
C           -6.84372466297812       -0.17539187114526       -0.23463341619327
O           -5.60640255171444        0.51041649585806       -0.22482091886741
C           -4.49636517822820       -0.27436356480533       -0.04502573000444
O           -4.63708983885887       -1.49128260012802        0.09992501310220
C           -3.22002917599890        0.42762905735150       -0.06554087413183
C           -3.12391168371734        1.83422977009945       -0.30229739476373
O           -4.09298770104520        2.65384242649696       -0.31931701761962
C           -1.75239473007077        2.33092765168907       -0.62656838730504
O           -1.50407904020687        3.46646197782826       -1.06197467687709
N           -0.73577703709058        1.41363559082504       -0.53563285873526
C           -0.87039693354008        0.19741601884327        0.25657733819923
C           -0.66325939023643        0.55381581494354        1.75673281056693
C            0.19577754027070       -0.82604251992768       -0.25702772901421
C            0.15530991454639       -2.10535050210328        0.59050264006251
C           -0.13199940029180       -1.15684396404532       -1.72065963353834
N            1.52002307364950       -0.20169438994955       -0.18152740367445
C            2.68188008969155       -0.85886721870965       -0.51820015671130
O            2.72739200425213       -1.92888134259221       -1.14462330367514
C            3.84677596742993       -0.11130557664407       -0.09078058682767
N            3.83958344515618        1.02745501186965        0.58759217460334
N            5.14785164269836        1.37798508120579        0.77410357140733
C            5.87054489355717        0.46085999313554        0.21727250857938
C            7.35101200078528        0.40168380203779        0.15573108289383
O            5.13067539171237       -0.51586812208825       -0.35085194823627
N           -2.15641670573919       -0.40955908002732        0.09003382259241
H           -7.62607523137608        0.56840124416726       -0.38623142298115
H           -6.87962283424127       -0.91290550011158       -1.04453757943937
H           -7.01453060465552       -0.69535381876545        0.71473787752824
H            0.19612717828124        1.78721281031485       -0.62487929671239
H           -1.35959965251860        1.34622819351531        2.02998916380692
H            0.34965773065668        0.89983080777105        1.95312230618910
H           -0.87144456020786       -0.31750113316396        2.37374733422455
H           -0.88035490817139       -2.43489826659431        0.68686155182601
H            0.73816023467125       -2.89505251131603        0.11758333834985
H            0.56520963137943       -1.92427032457851        1.58314551363227
H            0.54277772375656       -1.91608752782753       -2.11144286190014
H           -1.15565550635570       -1.53047784566560       -1.77859961072654
H           -0.04923505904540       -0.25959808015830       -2.33508134809440
H            1.64141975595447        0.52962826095608        0.50617274094734
H            7.77000270774306        1.25635979260858        0.68109574843718
H            7.71246513187232       -0.51763620814800        0.61588551512190
H            7.68870632822278        0.41520916697493       -0.88064689603804
