42
 energy: -83.020687374629 gnorm: 0.000342972919 xtb: 6.5.1 (579679a)
C           -2.33371565093003        4.03146118594026       -1.42653347398552
O           -2.54161631762030        2.66662055403788       -1.05056509304462
C           -1.46242299827526        1.98906690128436       -0.66918371976748
O           -0.35552281302989        2.47794221207387       -0.62952133236563
C           -1.72871904795936        0.56747812923358       -0.28917734211856
N           -0.58350896453383       -0.08445024603600        0.08788750502979
C           -0.63372052034196       -1.31720997192766        0.45705187178168
C            0.62644332999884       -2.04487317304310        0.87688351441078
C            0.53177236038784       -2.42186815060065        2.36308521559621
C            0.83540688913252       -3.28834739613121        0.00067429745872
N            1.72706974820977       -1.10855739901541        0.67205565183131
C            3.01198002005418       -1.39418945723092        0.94281980876857
O            3.42400356725656       -2.45237992705678        1.39402507422242
C            3.93069815969487       -0.26789327854472        0.63258792667812
N            5.21884116656087       -0.24056739494303        0.78190064081794
N            5.63729608044754        0.98830788869837        0.36666617723954
C            4.57837817723199        1.63539678599041       -0.01060907852135
C            4.50671501815447        3.01467109181322       -0.53989177959337
O            3.46550585967962        0.89719039275314        0.13173664563819
N           -1.81125437560121       -1.99957622112471        0.49016517242800
C           -3.03191580156307       -1.46644297662418        0.12785020351850
O           -4.03615706656214       -2.16062448226347        0.18558638431933
C           -2.95271345060631       -0.06477426806769       -0.29526596334438
O           -4.04271859271917        0.61097676462270       -0.68056793558849
C           -5.34341190116631        0.02457528360215       -0.74292594717860
H           -3.30826316999150        4.43152038741571       -1.69848177027743
H           -1.91306943741925        4.59184482118516       -0.58830036493598
H           -1.64981132052211        4.08592840937228       -2.27677978393444
H           -0.33372222286628       -3.06011970508400        2.52742778352125
H            1.42842698019732       -2.96028571014053        2.66526392087577
H            0.43143456875623       -1.52257568378557        2.96868034136181
H            1.75250519399286       -3.79562803076765        0.29519341829460
H            0.00148347223112       -3.97551655597184        0.12448006918116
H            0.90584679048396       -2.99787016862875       -1.04621495276333
H            1.47597113405478       -0.19988493468049        0.29792337957931
H            3.86721720529917        3.62535624469968        0.09702811002149
H            5.50489289597175        3.44429657650877       -0.57253124022223
H            4.07869305566683        3.00914015137120       -1.54204118401815
H           -1.84010036290193       -2.96309802091363        0.78886316995550
H           -5.99987343913847        0.81506683819792       -1.10889305815449
H           -5.36174318806411       -0.81876285279658       -1.43672885970842
H           -5.67660003164838       -0.30134461342100        0.24489159699653
