33
 energy: -58.524773813866 gnorm: 0.000553255530 xtb: 6.5.1 (579679a)
C            4.76429513473040        1.52384260487444       -0.13122418466271
O            3.65520607998560        0.69595706549171        0.16313319491842
C            2.43438898764658        1.10776607876264       -0.44871958184722
O            2.45700249951604        2.13993388418012       -1.15372242888556
C            1.34725548740941        0.29808831504522       -0.14650524450618
C            1.33532053199609       -0.93965520301234        0.63047936777661
O            2.50439233726124       -1.59569840608216        0.95708217734572
C            0.16174099577299       -1.52266740645896        0.93896141396257
O            0.00954175604502       -2.75792709128973        1.55112644309558
C           -0.05216963650479       -2.73725303897200        2.97233219081846
N           -1.07802355299876       -0.84090339222533        0.66388679404946
C           -0.96886692690372        0.09454031731667       -0.39586468100769
C           -2.29753600627026        0.47228055703279       -1.02465275595956
C           -2.07046297917681        1.21204605483480       -2.34935597797574
C           -3.07372859901592        1.35993873991464       -0.04073987360334
N           -3.07266001997261       -0.75642462382619       -1.23551223353949
N            0.11171887320162        0.65965645337685       -0.74398446335134
H            4.98100826969106        1.53325081103849       -1.20737060265689
H            5.62559833013703        1.12045138675865        0.40365274486695
H            4.58854939070659        2.55655894009524        0.19668325613801
H            3.26446194041564       -1.02355770116888        0.74745371802622
H            0.89285134579338       -2.38319794093118        3.40500224771043
H           -0.23624603797551       -3.76178995539949        3.30047739715403
H           -0.86848941204888       -2.09516180736653        3.32654549696085
H           -1.84467215651615       -1.49133877062387        0.50986730213216
H           -3.02406164823657        1.49776277355609       -2.79018389286275
H           -1.53749388831601        0.56839732731622       -3.04907274570743
H           -1.47214680775530        2.10771566551800       -2.17667539716320
H           -3.23371365982835        0.82300480702163        0.89446082845346
H           -4.04239167018528        1.63243834869211       -0.45875472741970
H           -2.51310584608096        2.27174623425980        0.16733772784650
H           -2.71398801731741       -1.25080662508816       -2.04229025264331
H           -4.03357409520658       -0.51899540264175       -1.43385325746524
