46
 energy: -86.233882582945 gnorm: 0.000518477326 xtb: 6.5.1 (579679a)
C            5.72152960777192        0.11948249984072        2.72467827365148
O            4.56309141893977        0.01899710476121        1.88166994492941
C            4.71987106744964        0.33820753127064        0.61489381212346
O            5.77211341897045        0.70024182109569        0.12403163619378
C            3.47671356193193        0.22196933663047       -0.19593894303670
N            2.33819776985151       -0.17032937354559        0.41787244316879
C            1.23092192214594       -0.31660412452551       -0.24837952476339
C            0.06773604263077       -0.91212135435412        0.54864201481662
C           -0.01470978177870       -2.41603211444966        0.27978897057852
C            0.34361489341130       -0.66761128012058        2.04587211238374
N           -1.13708721579483       -0.17398550234912        0.24544416946193
C           -2.41196214987909       -0.68285561972249       -0.12965392600261
C           -3.19494650871496       -0.58987938017489        1.35654741423129
O           -2.55023837532007       -1.83259882287848       -0.59893336002135
C           -3.18652500401775        0.47622073189304       -0.74265470680129
N           -2.70823190109596        1.65119641448085       -1.02468390550668
N           -3.71861737842562        2.33090283835469       -1.61492736375517
C           -4.76286141854517        1.54874297146482       -1.61753962069248
C           -6.10775918753983        1.82765350109004       -2.15347320284899
O           -4.47563621629326        0.35603831408227       -1.06897182521417
N            1.12718709491892       -0.00566278491621       -1.56545563929646
C           -0.13285120117776       -0.11244692669424       -2.29699749922070
C            2.22516044353542        0.47103262241741       -2.30557576503007
O            2.11798220654126        0.76146685740669       -3.47837401419435
C            3.47570508407831        0.54912061541080       -1.53849427813340
O            4.53271332872134        0.98158532211819       -2.19494235535581
H            6.49657287974719       -0.56250343504768        2.36924130901055
H            6.10004986731597        1.14353826835692        2.71055018401596
H            5.39625557324839       -0.15591203131650        3.72521676575572
H           -0.18491912081067       -2.63149323722607       -0.77200339234086
H           -0.81661110667810       -2.85695767258916        0.86696492385353
H            0.93225030130291       -2.86351834853842        0.58044439000395
H            0.42975350146232        0.39772663081623        2.24821286933910
H           -0.46808056107144       -1.08371460672602        2.63694412979611
H            1.27866690813453       -1.15563086027490        2.31559446180949
H           -1.12256926815756        0.79770397668671        0.52612296092803
H           -2.69312089977850       -1.34181621164936        1.95395758241439
H           -3.10526637550039        0.40385729051732        1.77590255105192
H           -4.22031505332828       -0.86328966115397        1.13076042090872
H           -6.12878257677081        2.82025329231575       -2.59746071514977
H           -6.84308104278409        1.76630131875187       -1.35017895825582
H           -6.37088916468745        1.08007003683492       -2.90283831472790
H            0.07629476235233        0.00393482783569       -3.35963864301480
H           -0.79756902709751        0.68905726377441       -1.97100678006296
H           -0.59300013399344       -1.07976501062180       -2.11684934991935
H            5.32325301477853        1.01942697065994       -1.59989025708198
