42
 energy: -83.634963178720 gnorm: 0.000269763466 xtb: 6.5.1 (579679a)
C            5.61182909639080        1.13831351944272        2.20369851981233
O            4.53857770108922        0.76209355203582        1.35680122544775
C            4.67511823534974        1.11549866901512        0.03688310280823
O            5.67801458550170        1.71058694199910       -0.33347953863396
C            3.54250870403630        0.70639879436274       -0.77012864373569
N            2.54055861781448        0.03559649775164       -0.08705824845364
C            1.49107717359030       -0.36510673623176       -0.70457839976805
C            0.40975820756620       -1.16944668555412       -0.00471999649006
C            0.45765447284748       -0.89312326673723        1.50578476361614
C            0.70568170472764       -2.65313812133687       -0.29087712234635
N           -0.86819153789463       -0.77038934325625       -0.60045095717155
C           -2.08299353098488       -1.30167040124985        0.01043303526290
O           -2.10383466816245       -2.48367436716230        0.48104683469353
C           -3.11012170247595       -0.40748939481517        0.08773190156433
O           -3.11263085373832        0.87881795071766       -0.53326221920733
C           -4.40173282282280        1.23157511214582       -0.56830513724608
C           -4.75598376294306        2.55438906842267       -1.15750380705277
N           -5.25059530599457        0.40516344058103       -0.08794290360764
N           -4.50964577143966       -0.74644951841709        0.36358052594720
C           -4.76873334409561       -0.91390271717292        1.80237244706528
N            1.32350695823290       -0.16166377486486       -2.05916414105892
C            2.22812976835171        0.47885920838188       -2.85640598472130
O            1.99785065476655        0.62129335425134       -4.05906853575023
C            3.47987741479322        0.96993197202913       -2.16402237066325
O            4.34808003331265        1.55622270461422       -2.84108406891620
H            5.35573726843494        0.81227273632263        3.21119287087314
H            5.75529328746704        2.22401378596683        2.19427986303522
H            6.54494236254673        0.65891584109902        1.88896221826140
H            0.22127264084165        0.15236403925112        1.70354989945198
H            1.45813069525933       -1.10137669710071        1.88513246021965
H           -0.26002597590583       -1.52567022265552        2.02647822731663
H            0.03092089631579       -3.29779408029925        0.26944421691253
H            0.58238023210142       -2.85500670018895       -1.35472720754528
H            1.73224349678071       -2.88328087936114       -0.00382991127774
H           -0.93140058999888        0.24517687384930       -0.60989579533967
H           -4.30125836171729        3.35497675265677       -0.57444412124905
H           -5.83601024847012        2.67942181065368       -1.15702847968906
H           -4.38198767712913        2.62574154716554       -2.17863551961092
H           -4.20288677213604       -1.78333658910707        2.13714544289591
H           -4.46321097687572       -0.03116387590053        2.37364093026979
H           -5.83398141129604       -1.09071665315133        1.94693129595856
H            0.46608110596438       -0.48322514815906       -2.48847867187512
