20
 energy: -38.303358305440 gnorm: 0.000637912870 xtb: 6.5.1 (579679a)
C           -2.38165935006667       -1.87371613773669        0.07527499977548
O           -1.93226969412607       -1.00909836884141       -0.96252461759264
C           -0.99220836158869       -0.03177582055218       -0.57896197745489
O           -1.54407075325247        1.01416881204114        0.21692153736723
C           -2.04361627518910        2.10243062598739       -0.53794802076232
C            0.31718962947700       -0.42302591859329       -0.34519888079956
N            0.92072063885081       -1.54056646067541       -0.79562324212423
N            2.27151013024843       -1.37450294089524       -0.54202159538263
C            2.42800777172094       -0.22823488918873        0.01585919306778
C            3.70054954881202        0.39251132461948        0.47242423828391
O            1.24922602858327        0.45335016737153        0.18267610131951
H           -1.55189145952187       -2.46409152816594        0.48965081625590
H           -3.11997754238968       -2.55251716069187       -0.35782157523597
H           -2.85370975792477       -1.30821976392901        0.88956589160377
H           -1.26724672946067        2.52665345833256       -1.18832251461279
H           -2.89355935754645        1.79937924451166       -1.16374848791531
H           -2.37785298947164        2.86844294509663        0.16537052294351
H            3.67273140962403        0.58660811846463        1.54580902477905
H            4.52738481223079       -0.28050325546613        0.25478194686909
H            3.87074330099036        1.34270554831138       -0.03611436038394
