16
 energy: -34.111134882398 gnorm: 0.000645850537 xtb: 6.5.1 (579679a)
C           -1.89907575970266       -1.15476837381171        0.04490231351053
C           -0.52967194153933       -0.58492759878912        0.03186536314055
O            0.56683758937623       -1.39042121136693        0.08301758417000
C            1.67599422588317       -0.45659971211611        0.03722696831400
C            2.92419055201947       -0.92221027909947        0.09039742217530
O            3.53939001096023       -1.98856511798901        0.15614740865871
Cl           4.14364839162486        0.70268355135015        0.00848470040885
N            1.16181410348271        0.85914497002773       -0.04115096013668
N           -0.15757477846682        0.66754366102540       -0.04056341946851
C           -1.01453620808370        1.82721579338082       -0.11501511599986
H           -2.63660619207286       -0.35918927548991        0.10888148988269
H           -2.08492920628211       -1.73417242250184       -0.86212034998339
H           -2.02209302079015       -1.82289825323116        0.89895365592914
H           -0.37922338690479        2.70825741446043       -0.17440187866224
H           -1.64199361840964        1.88312997841594        0.77320015790208
H           -1.64616976109463        1.76577687573481       -0.99982733984113
