43
 energy: -83.136731699018 gnorm: 0.000757489321 xtb: 6.5.1 (579679a)
C           -5.47593961068889       -2.58479345103518       -0.36254429669743
O           -4.46308639735206       -1.55889810984046       -0.49597727814504
C           -3.33780080246014       -1.74091110669349        0.20967761730823
O           -3.13441600802909       -2.68794216545849        0.91195008408098
C           -2.36500090199898       -0.60487642549789        0.01644049620036
N           -1.19382896638116       -0.76411796711689        0.67431919475449
C           -0.27606161127735        0.15892959401077        0.57477227774239
C            1.01542836517629       -0.00508675137749        1.35756909186688
C            1.06065973923149        1.04614368765926        2.47734277114805
C            1.08622320048780       -1.41355491877985        1.94916246143580
N            2.17301587981696        0.14320441582374        0.46861695257574
C            2.60492111882275        1.29034521714440       -0.09046803375236
O            2.00986674256250        2.36219599144971       -0.05532833238462
C            3.88853165452224        1.13218837615259       -0.80277981852331
N            4.55513560879948        2.03061668132630       -1.45879068108736
N            5.66859310565582        1.41874868142532       -1.94243943967672
C            5.61690695538103        0.18146910215646       -1.55336474879682
C            6.59066808957751       -0.89831825765708       -1.82073562985522
O            4.51450002436735       -0.06485218526095       -0.82740165400492
N           -0.45769065271341        1.27458912028427       -0.15340636864403
C           -1.59824986458415        1.56048962782053       -0.88524809633828
O           -1.70970088947065        2.57723483598230       -1.53862501339918
C           -2.58733617543011        0.50930281552807       -0.74210974025861
O           -3.78405841851576        0.67098167174529       -1.49486329239418
C           -4.61000445196326        1.85794838562813       -1.23617371610750
H           -6.34443050067093       -2.22559968108571       -0.90717466412191
H           -5.10256912371705       -3.51553065938423       -0.79182220836913
H           -5.70764064395598       -2.72314851085909        0.69433405942084
H            0.98752859393396        2.05296660173451        2.07215652949832
H            1.99817027281699        0.94741984579483        3.02187243081503
H            0.23015486490580        0.87867680992909        3.16100324051315
H            0.24253384582225       -1.57344118965155        2.61809534821467
H            2.01227455640738       -1.52976042627864        2.50885780404606
H            1.04921574352172       -2.15841238429340        1.15591565218379
H            2.75204354788553       -0.67551928467312        0.36239634194440
H            7.37932939983171       -0.53054037254130       -2.47305908100259
H            6.08617178509882       -1.74213244615438       -2.29066912075522
H            7.02326130275569       -1.24670421967652       -0.88277745928094
H            0.31342892447490        1.96106398261291       -0.19158391200173
H           -4.32913423786294       -0.16870924275796       -1.37539165657807
H           -4.92240901242688        1.85746567131267       -0.19362611671106
H           -5.45835752055514        1.77413845019845       -1.90962661156677
H           -4.00084653176524        2.72673019040662       -1.47517638325505
