33
 energy: -57.818006139630 gnorm: 0.000465441463 xtb: 6.5.1 (579679a)
C           -2.34917634634041        2.19389168739707        1.36716777183374
O           -1.71249387442690        1.05688592311208        0.73477170542629
C           -2.23695833204568        0.58888678120968       -0.35125458921659
O           -3.22283777228823        0.92557279102934       -0.92254079087927
C           -1.34224970611166       -0.63242787860545       -0.93207806182816
C           -1.89473993473222       -0.98071126585575       -2.31655116937361
N           -0.02441737249185       -0.08568906458109       -1.00826331789542
C            0.85983587695811       -0.34578387492815       -0.12503847828205
C            2.24681369679419        0.27128217512168       -0.22417980038175
C            2.28326897199311        1.49072612636682        0.70701008706299
C            2.52445188286878        0.68034383181815       -1.67397311012963
N            3.25677646251307       -0.67727024683345        0.20318595165439
N            0.63187239709536       -1.17315214677719        0.96158804852990
C           -0.52134273983718       -1.85500821957443        1.16775679970254
O           -0.75028618174958       -2.60747754510898        2.08869012411219
C           -1.52493823611540       -1.65305096719893        0.08372070119282
O           -2.56640054662692       -2.39248923010791        0.10643320233999
H           -2.02716229713601        3.10419551065386        0.86083346596988
H           -2.00925700418769        2.18761568677328        2.39976989179248
H           -3.43249676411535        2.08715583060129        1.30712044751863
H           -1.83550556462572       -0.10118953050022       -2.95362287024260
H           -2.92987052449574       -1.30352218173586       -2.22972346619745
H           -1.29393601144510       -1.78046337367238       -2.74312953360585
H            1.53792859494779        2.22160365779899        0.39661247809976
H            3.27209245502842        1.94558024084617        0.66769333025173
H            2.07408543248870        1.18626453305561        1.73121098591313
H            1.80450474743424        1.43028497313531       -1.99769350730960
H            2.44737715846542       -0.18750059878989       -2.32709281471810
H            3.53098442924894        1.08999491049379       -1.74359747872524
H            3.11071933974250       -1.58470934553174       -0.21185006620489
H            3.29545817962277       -0.76257199624441        1.20627834095435
H            1.38241401136792       -1.33739328870194        1.61920094949144
H           -2.58451342779964       -2.99987690467067        0.88112077314543
