47
 energy: -79.450599994652 gnorm: 0.000662494210 xtb: 6.5.1 (579679a)
C            6.54678110895252        1.90330337318597        0.71200744511443
F            6.28753505218070        0.54793410897618        1.12460708159362
C            5.18561566347197       -0.32311680477605        0.69403338574313
C            5.39892984481147       -1.06868999324126       -0.43510617863735
C            4.35814072403553       -1.91447881637574       -0.80706958590677
C            3.18593893862840       -1.97616418045262       -0.05595141041596
C            2.05295026744513       -2.88503046565817       -0.48405166003639
N            0.92901350132990       -2.10323405920363       -0.97622133356818
C           -0.01634080199635       -1.66028586558390       -0.11512391034719
O           -0.01837287499345       -1.97753376782936        1.06778785167765
C           -1.07402272985026       -0.77327385232452       -0.69420696654333
N           -1.94425299291634       -0.27936110287803        0.23529507346925
C           -2.91180571039162        0.52103116913194       -0.08392386833524
C           -3.79619071172830        0.98173509225014        1.06815086360614
C           -5.04607543509081        0.09011927943539        1.12652576024542
C           -3.01250471770907        0.84278680583362        2.38488111780598
N           -4.19769298695195        2.37183355274109        0.88153184329405
N           -3.14538288168157        0.88966010235528       -1.38583725560189
C           -4.23566426389570        1.78125554191277       -1.79260777657041
C           -2.31229181741166        0.46480779579347       -2.40227860049769
O           -2.46487193980868        0.79657600490719       -3.57669317168351
C           -1.22980620777365       -0.41540587628411       -2.00130173338547
O           -0.43012275045151       -0.82682677972944       -3.00646168949911
C            3.04753608054127       -1.18612718335782        1.08647191699668
C            4.06469631427226       -0.32648829775336        1.48354186030563
H            6.68693514806142        1.86851911537467       -0.36429068084242
H            5.67711889975231        2.48018218121624        1.01234145853786
H            7.44848881781463        2.16792194542761        1.25561362720899
H            6.31729660395885       -1.00506999456703       -1.00057309797320
H            4.47429947178764       -2.52656503005029       -1.69290793154599
H            1.70674920051245       -3.47538639682149        0.37042641453572
H            2.38164162658696       -3.55440636599983       -1.28083884472781
H            1.01162070030500       -1.72199706194661       -1.90417302748877
H           -4.75117252358858       -0.95665512723781        1.19160422804472
H           -5.63399025369505        0.34581078230613        2.00686485144192
H           -5.66700897527410        0.22651516773224        0.24298030807561
H           -2.76599886784460       -0.20105877320372        2.57453925841164
H           -3.61717922119423        1.22308543591415        3.20619870648355
H           -2.08852675746833        1.41574571212199        2.33087253673205
H           -4.88886274432834        2.61248214415479        1.57887036920674
H           -3.39741947876948        2.97344065398558        1.02603712163304
H           -5.14485974369243        1.53399566216487       -1.25392645326722
H           -4.39355888663248        1.65594788092052       -2.86363352074916
H           -3.96049906136164        2.81301226467244       -1.58063601741952
H           -0.73750059357591       -0.41037851184549       -3.83584819803288
H            2.13917621412306       -1.23750193280384        1.67558510129642
H            3.98151375149043        0.29733546740710        2.36202173161268
