47
 energy: -79.516913264263 gnorm: 0.000483468807 xtb: 6.5.1 (579679a)
C           -2.86886403306744        0.93164306055693       -2.24635836227426
N           -1.78709702463628        0.25810365342258       -1.51412166221797
C           -1.59540570318807        0.41315012523674       -0.17304622800416
C           -2.50659755003699        1.25361653688126        0.70978622950541
C           -3.72778696412321        0.39811130553130        1.08344546908457
C           -1.75033196940161        1.64750691188610        1.98978467727558
N           -2.94568218415707        2.45354188557841        0.01204726593366
N           -0.63548423925510       -0.21809648573290        0.45664506835191
C            0.17971911252990       -1.02420152767825       -0.23761848938902
C            0.57548920229204       -2.85940578562764        1.29825368076240
C            0.13738638737572       -3.96638705067839        0.42236211101160
O            0.47004803631526       -2.74355132852471        2.46803903126894
N            1.23033279707139       -1.71221724875209        0.52221465870594
C            1.96137765301030       -0.78314397714626        1.44888611493703
C            2.75722885664333        0.20352745090664        0.63919004553236
C            2.29138084096931        1.50341336159336        0.45587161982353
C            3.03045525399860        2.41568239139621       -0.28248048774934
C            4.22893935122325        1.99778896574081       -0.83433169640792
F            4.94577212914555        2.87210517918278       -1.54645749901370
C            4.71449007001490        0.71062471805681       -0.67916987841768
C            3.96747580076459       -0.18789543014378        0.06741121461894
C            0.07717835806258       -1.23338134120768       -1.57014578750146
O            0.91210076701672       -2.07304544539364       -2.21324451079328
C           -0.95734882689555       -0.53805592857049       -2.30656512637801
O           -1.09853602769503       -0.64909189343505       -3.51425820194468
H           -3.78563851752882        0.89754127283431       -1.66735324343577
H           -3.00799295277072        0.41372674200949       -3.19464313435667
H           -2.59078860708204        1.96818463890643       -2.42701864350477
H           -4.36899618217931        0.96079301992856        1.76041957058854
H           -4.30266824397953        0.12830772399187        0.19944525556585
H           -3.40054425398572       -0.51290702573792        1.58225487793009
H           -1.48854339257608        0.76401865815597        2.56973081832312
H           -0.83743591900967        2.18280949826919        1.73290332389541
H           -2.38239428400641        2.29675424879883        2.59322940682162
H           -3.68539829072229        2.89207736406659        0.54420216106899
H           -2.17666389194546        3.10834526392633       -0.04247250851299
H            0.71555203375205       -4.02019368189023       -0.49637809062585
H            0.19874726437456       -4.90201080570992        0.97678390493822
H           -0.90929575717883       -3.79546809241945        0.16380129327371
H            1.88059180805980       -2.11709789810270       -0.15688020664404
H            2.60213138467441       -1.41024704154176        2.07047834019829
H            1.20237292161118       -0.29937600855839        2.06522250444331
H            1.34612976350993        1.80277648752521        0.89179174383503
H            2.68511481090333        3.43043720830980       -0.42903569958366
H            5.65483691037018        0.42056167794234       -1.12964688444573
H            4.32816492354230       -1.19919747559158        0.20979596310195
H            0.71648137818236       -2.08017487818381       -3.16764400961210
