42
 energy: -82.985474050077 gnorm: 0.000309472534 xtb: 6.5.1 (579679a)
C            3.67092775589962       -2.49608934495894       -2.92809808785448
O            3.47432817462385       -1.40284518005997       -2.02130220151650
C            2.23102181915819       -1.00787531892519       -1.82056714743556
O            1.25932144535736       -1.50629216456814       -2.32864718993953
C            2.14772699590053        0.14953621881605       -0.84302919238568
C            3.31986855432106        1.03609925768855       -0.58911140417411
O            4.22967954339843        1.18944021460049       -1.36245904529510
C            3.24660868741539        1.79001798954303        0.74147708634401
O            4.22375978117348        2.25956826143111        1.28738941921132
N            2.00452228457500        1.86475494280402        1.26347128920983
C            0.78182970668118        1.39328441316429        0.64309475188456
C            0.14183993732360        2.54294238082519       -0.15179819911674
C           -0.16601053827743        0.81361044858980        1.74165434677760
C           -0.68339533789081        1.90235323190823        2.68361592922504
C            0.57057571581987       -0.28474148666816        2.51777235458957
N           -1.28622594390794        0.22078682435280        1.01077653633028
C           -2.34977866572138       -0.35079046816025        1.61198728093179
O           -2.55912043560520       -0.37606202775358        2.81354041309409
C           -3.29889010136468       -0.94991114996804        0.63938654715780
N           -4.41519522160808       -1.55625058689353        0.89983336668628
N           -4.95282782555267       -1.92289077024359       -0.29710881838997
C           -4.13174313132611       -1.51766868461239       -1.21557257114274
C           -4.26530433872929       -1.67573694564532       -2.68016943340991
O           -3.06324014165956       -0.89556998276755       -0.69004990050788
N            1.01477786126973        0.33236398320612       -0.28794439444570
H            3.40553199703519       -2.18699639217009       -3.94098781437576
H            3.04879134592246       -3.34258882295281       -2.63104662368570
H            4.72534036869118       -2.75747201201848       -2.87295383604024
H            1.90706861658331        2.45804823343933        2.07358491467925
H            0.79805338361277        2.80973461645485       -0.97810493377804
H            0.01429888357015        3.40767521435767        0.49422241572993
H           -0.82490721559539        2.23599276146729       -0.54396938065835
H            0.14500210102434        2.47819217214619        3.08977499316180
H           -1.22147818167336        1.44512924231702        3.51256123487984
H           -1.36008968217043        2.57326091161192        2.15848240071944
H            1.41911890499894        0.14180280726623        3.04904760963677
H            0.92760844028733       -1.04952516096593        1.82945905660196
H           -0.10548104820521       -0.74010977931529        3.23980273364330
H           -1.14578292631077        0.05484902697628        0.02370769573292
H           -5.26204230671167       -2.03862488077108       -2.91945036433038
H           -3.52602252818005       -2.38818370094632       -3.04730433648443
H           -4.09006873415573       -0.72167829260907       -3.17496450125334
