43
 energy: -83.870114612527 gnorm: 0.000489277120 xtb: 6.5.1 (579679a)
C           -4.75886071820267        1.68271766946245        1.86655519577517
O           -3.47445188663346        1.11971765188283        1.96883848610133
C           -2.65044299448517        1.24574267201297        0.70216788829101
C           -1.32901696521635        1.91024953822097        1.22312012866789
O           -3.23393626866486        1.86787999215257       -0.26508447800246
C           -2.30879415415198       -0.26020715276972        0.32778060185868
N           -0.99790580968347       -0.50549517959469       -0.00399953597303
C           -0.61417318592883       -1.66774666482755       -0.40736457956740
C            0.84788356108245       -1.91172152774346       -0.73820040206451
C            1.44963003572183       -2.88969658355100        0.28134643467041
C            1.00409950465793       -2.44321833599842       -2.16890900771501
N            1.50317163377686       -0.61401926547213       -0.62225078775050
C            2.81246326062922       -0.39274898992363       -0.80375356052575
O            3.64699671403583       -1.23058120021585       -1.10893842056850
C            3.13386927486895        1.04531454753097       -0.58535000657647
N            2.28660806723888        1.97823521709479       -0.27338399223644
N            2.99698852598275        3.13672846226422       -0.16782435175118
C            4.23286816845880        2.83596002059374       -0.42167398789721
C            5.39920317698257        3.74585675264861       -0.43207861408284
O            4.38493371719435        1.53085522453656       -0.69373204521082
N           -1.47889579588625       -2.71329068984358       -0.52870153163580
C           -2.82560308804395       -2.58964923575396       -0.24535377432770
O           -3.59376578749700       -3.54674737805738       -0.36014836313242
C           -3.22170273923723       -1.27074733333483        0.19279205761238
O           -4.54729440080633       -1.13867950698792        0.47213420131633
H           -5.27287334721784        1.50899677065758        2.81772073572353
H           -4.72335723266196        2.76904725193071        1.68375899760131
H           -5.35114514518495        1.22112777214473        1.06145804858700
H           -0.90137209496825        1.33649428960523        2.04340099410948
H           -0.60777340972715        1.97791603583184        0.41022154519192
H           -1.57162122144491        2.91375475895593        1.56930764335452
H            2.49789034856297       -3.06871553724718        0.04991004028064
H            0.91467233915006       -3.83605037557439        0.24310159056014
H            1.37028512079703       -2.47600172453848        1.28581721945528
H            2.05941145584271       -2.58210061818575       -2.39658101421605
H            0.49895526606057       -3.40156910639998       -2.26694087928547
H            0.57505732693693       -1.73955748787121       -2.88099140767840
H            0.90063331149951        0.16069263611670       -0.34672608605021
H            6.14219927157641        3.40735898811478        0.28948959159306
H            5.86355053306962        3.74692792145059       -1.41783233737717
H            5.07905671067782        4.75351757381662       -0.17946743449901
H           -1.16269523026001       -3.61954159018253       -0.82954786987357
H           -4.97474384890864       -1.99700626294862        0.32376606723907
