16
 energy: -33.395007492650 gnorm: 0.000813255546 xtb: 6.5.1 (579679a)
C           -3.92427844826812       -0.31473315121955        0.01445937936327
Cl          -2.39966908594873       -0.30386527723362        0.94448235759757
C           -1.13694211665533       -0.04947696693324       -0.37203005446199
O           -1.51116517826395        0.03657602226815       -1.48638851155972
C            0.15987720360475       -0.00426900125815        0.22547544664881
N            0.46342439293214       -0.11396104605841        1.49834302088927
N            1.78694859532780       -0.00834723500799        1.59241081608083
C            2.25059433309267        0.16364355716094        0.37081691801540
C            3.65655975486122        0.32241454055189       -0.03689933091422
O            1.26826756367223        0.17263750434949       -0.52163481484167
H           -4.42972166787919        0.63412690525777        0.17132858027090
H           -3.68468915758056       -0.45270187999485       -1.03888495566586
H           -4.51854744944754       -1.14450654620187        0.38524875441800
H            4.27797664494941        0.50279854663951        0.83724116718492
H            3.99454746339033       -0.58647341007091       -0.53855053796181
H            3.74681815220765        1.14613843775100       -0.74453423506746
