42
 energy: -82.942451950825 gnorm: 0.000529647843 xtb: 6.5.1 (579679a)
C           -1.53580533877224        3.35015383777526        1.97357986352193
O           -1.47804779456364        2.17483257494476        1.15535030612689
C           -2.62631931294015        1.56922775871381        0.89750305606872
O           -3.69953689958162        1.93773730699702        1.30155277384362
C           -2.42589244726171        0.35048875785833        0.02587740705133
C           -3.49098889367408       -0.50218324657168       -0.35085241692282
O           -4.73069463662875       -0.34463602491049       -0.03501355309087
C           -3.23603940169784       -1.71905954470141       -1.17098612712399
O           -4.23507405035282       -2.41141083464694       -1.40756093508375
N           -1.98784062715352       -1.93208281144573       -1.56524733925119
C           -0.95692927702940       -1.03537651495666       -1.22155833784465
C           -0.42798600270805       -0.41177557889191       -2.53881252271804
C            0.19001855898359       -1.85905529936708       -0.51406947564897
C            0.70605960157893       -2.95572484048315       -1.44247824867015
C           -0.36217932484591       -2.45351792286134        0.78524718103713
N            1.24025385700775       -0.89651363460935       -0.19889987968521
C            2.44750432632996       -1.24523253681694        0.29583006023467
O            2.86164439373427       -2.38440374246660        0.42447751575782
C            3.26933936055298       -0.06308194145747        0.65927174327166
N            4.47657422631672       -0.05443709154427        1.13267769495431
N            4.82174868922547        1.25184514802336        1.30692640241265
C            3.80426506503084        1.96109636880486        0.92887160533366
C            3.68165232771998        3.43457981519219        0.92437118279135
O            2.78754129525258        1.19061267070051        0.50809763379247
N           -1.22138862456466        0.07515414213683       -0.37868285835771
H           -1.78374671373072        3.07323456095329        3.00036084646458
H           -0.54846472103546        3.80374646882867        1.93153631805607
H           -2.29078590941900        4.03807435825082        1.58731194459031
H           -5.20000294348001       -1.13268801764388       -0.44573194082037
H           -0.26448957494850       -1.20130024704730       -3.26713226749650
H           -1.18029937435029        0.27621406778365       -2.91761136810126
H            0.49670728213332        0.12732401079406       -2.35141146623986
H           -0.13866549413388       -3.48714782566072       -1.87845798159952
H            1.31240099498460       -3.66238117040927       -0.87793205486120
H            1.31688944254523       -2.53542141250517       -2.23873062902397
H            0.43305929318445       -2.99507462093896        1.29632039729681
H           -1.17595076273294       -3.14130032641426        0.56181830860120
H           -0.72843607863439       -1.66374562085279        1.43855203265557
H            0.94677003810840        0.06535632226635       -0.09843987060165
H            4.60230570088229        3.87982007346795        1.29402273684890
H            2.84826692193866        3.73921582634309        1.55674639571895
H            3.48256382872923        3.78884173736959       -0.08669213327724
