33
 energy: -58.573174131676 gnorm: 0.000352625435 xtb: 6.5.1 (579679a)
C            3.92115823662302        1.56102831371034       -0.51105789205739
O            2.63851316648960        1.15953193100196       -0.07532552745245
C            2.34408621737882       -0.25731842250163       -0.14475200189730
C            2.19428648605310       -0.68158466632763       -1.61952528237739
O            3.36100305576278       -1.00380915657028        0.43784658595828
C            1.02181064122291       -0.44106580687608        0.60591986428407
N           -0.10468609749808       -0.12190535490657       -0.10059150895685
C           -1.26179631157377       -0.21932703702086        0.46553055890637
C           -2.53606923686472        0.11602196373712       -0.28941176348293
C           -2.17879852428651        0.73519131044592       -1.64455023791069
C           -3.37332182091685       -1.15423843542615       -0.49166334818107
N           -3.34851771713447        1.07927521335789        0.45752262688301
N           -1.38050341318592       -0.63648391598585        1.76908851746401
C           -0.32051138345205       -1.00061030344505        2.57258875741719
O           -0.54159886311176       -1.36632332710435        3.73181112812494
C            1.01118704867654       -0.89146371819675        1.92461533956167
O            2.06510977573558       -1.20807905129973        2.58206850492072
H            3.99157144402104        1.59164824542081       -1.60744874501310
H            4.09298377985326        2.56934448893247       -0.12531264927782
H            4.70637751461627        0.89726499737628       -0.12676643111381
H            1.88290903978450       -1.72400456340369       -1.65707573138317
H            1.44373209778341       -0.06245384691376       -2.10688698227049
H            3.14612016517517       -0.57911953627144       -2.13658530068188
H           -1.62195391202840        0.02012967789188       -2.24984425123415
H           -1.56165688776721        1.62213940964985       -1.50120193844927
H           -3.08942170120825        1.01894305116991       -2.17057072764109
H           -2.81846723596680       -1.88253160331705       -1.08255854419337
H           -3.62293032111848       -1.60131752490694        0.47000202021584
H           -4.29897537598763       -0.90752563514078       -1.01073779300006
H           -3.74710311214059        0.64388629850000        1.27705541714934
H           -2.77950535730491        1.86060043448692        0.75732760475725
H           -2.29439140851309       -0.67581436737217        2.18889438139081
H            3.05936101088055       -1.15016606269521        1.41159234954241
