46
 energy: -86.305998925739 gnorm: 0.000878417666 xtb: 6.5.1 (579679a)
C           -0.89781969716076        4.24428990929464       -1.50915351559217
O           -1.08764009291540        2.82403755381997       -1.36173814457397
C           -1.59873521563424        2.38750895263263       -0.23862949951897
O           -1.92209667538794        3.04237466221013        0.71301716760072
C           -1.71759074632622        0.86886027570347       -0.22646701972824
C           -2.96206534213361        0.22694291566334        0.27497668843494
O           -4.06422435893484        1.02647460987439        0.01712919011410
C           -3.11340863033749       -1.14774799821136       -0.35359454403489
C           -2.78835980426591       -0.01985306910780        1.80476438641064
O           -4.15583345330220       -1.71077506840072       -0.48050157275968
N           -1.87672025985372       -1.82139293649633       -0.67550849921385
C           -2.08635490131669       -3.20641984716599       -1.10760027995104
C           -0.71341692477329       -1.19850059943199       -0.56514916433614
C            0.64716034158020       -1.84157883025506       -0.63492776537661
C            0.76014454800528       -3.15401760071869        0.15457775906654
C            0.99971769794858       -2.01597214116547       -2.13078058335385
N            1.57947579039029       -0.88303460978658       -0.04848507780997
C            2.92699200202529       -1.04223773791954       -0.06722510641047
O            3.51214464697217       -1.99482992815376       -0.54792512105213
C            3.63245982354831        0.08312253614424        0.58370864450013
N            4.91116713155028        0.23475150335503        0.73253364528943
N            5.09365907832323        1.40996902053633        1.39169945603500
C            3.91520754136384        1.90716711000017        1.60737446575591
C            3.57898780924720        3.17060448172048        2.29737073780319
O            2.94414780237365        1.11674266930256        1.11818519675648
N           -0.68264978569732        0.16105182337206       -0.50696344656249
H           -0.14327470369735        4.37220006196700       -2.28233763217466
H           -1.84032693652713        4.70140666737033       -1.81488217701180
H           -0.56365623954770        4.67284042968693       -0.56315783387654
H           -4.88976589378578        0.56295490996640        0.21686921497015
H           -3.67296659506111       -0.53582961148781        2.17119966661982
H           -1.90111805351534       -0.61628723380325        1.99740808629702
H           -2.70010330959078        0.95210030242262        2.28743805487232
H           -1.23889291749739       -3.55781308374788       -1.68130649478132
H           -2.98247667886287       -3.22295434401590       -1.72657059407363
H           -2.24651357348764       -3.82517631675065       -0.22584666152445
H            0.32916526824410       -3.02699297353031        1.14527181970008
H            0.26732272792224       -3.97672478377980       -0.35329615258250
H            1.81594639219624       -3.40244758002028        0.25432354844566
H            1.04342661681984       -1.03790777207312       -2.60610232101775
H            1.97102376800385       -2.50201143122142       -2.20384895343572
H            0.25893261733396       -2.62767695990232       -2.63746958163912
H            1.19460603654956       -0.05385537249632        0.37698806755812
H            2.91545466792198        2.96848390045001        3.13775006075121
H            3.05949677516100        3.84086863146035        1.61296990086014
H            4.48937170611434        3.64728490268737        2.65391198454981
