42
 energy: -83.633084598625 gnorm: 0.000813983003 xtb: 6.5.1 (579679a)
C           -6.97286754433895       -0.34622159212253        0.11303004911761
O           -5.67427240527212       -0.27228820523590        0.69795185260221
C           -4.64703325667097       -0.08447718710920       -0.17519399206453
O           -4.85576154684176        0.01414545597996       -1.37142341994674
C           -3.32104135979575       -0.01974245911217        0.45923082364333
N           -2.30398983720039        0.17868282584612       -0.43638012313858
C           -1.07708096115102        0.24576155177147        0.04126748952178
C            0.00586496199867        0.48590970413774       -1.00999555847296
C           -0.07298006684375       -0.62503906499793       -2.06922860652350
C           -0.25128553360112        1.85609400136985       -1.66039321990501
N            1.30842508114334        0.47289083764740       -0.36627961888234
C            2.47898982823806        0.66864649260081       -0.97342073443682
O            2.61948780496689        0.86394970574688       -2.18309234811495
C            3.69230957283897        0.64767650536819        0.02305815478156
C            4.43912229573096        1.98723766584631       -0.14185090064308
N            3.23620573019099        0.44043481782034        1.38702390859503
N            3.81548990257859       -0.73130967761376        1.79938336987009
C            4.54608424995712       -1.21482431549827        0.86496189817977
C            5.35490789183379       -2.46511782139016        0.89281217148562
O            4.55748193699435       -0.44084969252260       -0.30291653277435
N           -0.70641731143445        0.14169320827246        1.30912686664622
C           -1.65048125920035       -0.05500962088213        2.27291036147259
O           -1.35093800466025       -0.15566935309948        3.47668823351400
C           -3.04137772001022       -0.13863371236915        1.80520503906409
O           -3.96775417096094       -0.33433861108513        2.78372503550133
H           -7.68260161426149       -0.47122416812907        0.92796134290931
H           -7.03401595807733       -1.19786832303623       -0.57015208373972
H           -7.19535674494679        0.57150504483660       -0.43826361931403
H            0.16927488694984       -1.58935176725973       -1.62234522903091
H            0.62171384412239       -0.42755001048360       -2.88450574691189
H           -1.08629383437836       -0.66609835497672       -2.46726707145251
H           -1.26534479572127        1.87684328870831       -2.05764912045061
H            0.45258724570114        2.03543611376780       -2.47192596225755
H           -0.14736802122544        2.64766575140373       -0.91828954758331
H            1.33851632023572        0.35733837453399        0.65668426986290
H            3.79740949304611        2.80133962114346        0.18988665614039
H            5.33998732514708        1.97195509664086        0.46798779309537
H            4.71144616835902        2.13978119405480       -1.18536902881826
H            5.02045691048594       -3.17008718790843        0.12747219424985
H            5.25614163348130       -2.93406518142865        1.87069024178362
H            6.41049397371404       -2.25281516007465        0.70942250630227
H           -4.86813711111996       -0.37084679116819        2.42946120613301
