42
 energy: -82.939889885901 gnorm: 0.000707257201 xtb: 6.5.1 (579679a)
C            2.13185605071278        3.53510934661987        0.81603135412745
O            2.18311330331447        2.18518297124521        0.35392340051720
C            3.36643665582092        1.77240953404857       -0.13451405860432
O            4.33521195228291        2.49690731023690       -0.18561831739335
C            3.31395833404615        0.36147386143490       -0.58180798851676
N            2.10798709570408       -0.24016392626464       -0.47436935551709
C            1.94047385062726       -1.48099260659060       -0.82607542048478
C            0.57337296003861       -2.11257329280905       -0.69690448141022
C            0.61942119931404       -3.28165239219548        0.29848113651282
C            0.07035142382381       -2.57627226703047       -2.07263138455247
N           -0.30824396408944       -1.06722324662409       -0.18748806139186
C           -1.61963561695456       -1.23103879383679        0.05510813127387
O           -2.25671966346167       -2.26060430484733       -0.07419140701603
C           -2.23262012349684        0.05053032847046        0.50764131886773
N           -1.55762493097246        1.20599655967570        0.65346949141032
N           -2.38123743143949        2.11578412870905        1.02291086988553
C           -3.69846553387882        1.54414268422434        1.12966185013233
C           -4.21597768922157        1.64436373829711        2.56648050174387
C           -4.64541641302554        2.20212047874802        0.12154804082193
O           -3.50414560962753        0.17322787304773        0.77805346620883
N            2.96143980221998       -2.23458197816849       -1.30855239934392
C            4.25480369123948       -1.76515858029161       -1.48469122269929
O            5.11311951688984       -2.50269552939735       -1.92579929982795
C            4.47521251932621       -0.31738521692317       -1.09188306895327
O            5.59140447173521        0.17970560360912       -1.21867472303498
H            1.11600848661696        3.70610965627031        1.16647301231183
H            2.37142493879733        4.22435104113334        0.00183130102762
H            2.84231180596824        3.68306175962018        1.63386660315970
H            1.32025636699840       -4.03565630764670       -0.05313951440371
H            0.93638841194751       -2.92530232555085        1.27725279817175
H           -0.36825523424984       -3.73076607442485        0.38224627955625
H           -0.91910798117266       -3.01755034305632       -1.97059949337835
H            0.01705438446000       -1.72844996090480       -2.75364155473412
H            0.74780499814931       -3.32277251053461       -2.48091003373163
H            0.12343180019910       -0.15700370745528       -0.04286020796374
H           -5.17978687609513        1.14569116410262        2.63434484061073
H           -4.32415539876816        2.69245081195000        2.83339847003244
H           -3.50915750185268        1.16577238982668        3.24075965422768
H           -4.74870392376021        3.25635767509895        0.36488380529619
H           -5.61586882261050        1.71457323517326        0.17244862301318
H           -4.23570547320123        2.09565834827228       -0.88060520720696
H            2.80798416763461       -3.19736813526302       -1.56585674874125
