21
 energy: -30.778805204388 gnorm: 0.000593924298 xtb: 6.5.1 (579679a)
C           -0.78544571013972        1.62485708963976       -0.90505496982970
C           -0.01129462936980        0.52508848329694       -0.19783769202486
C           -1.38468925765764       -0.49038270251892        0.58562884882035
N           -2.31737455842627       -0.81123160464571       -0.32519487582160
C            0.70222629205789        0.89120197740926        0.99398385447722
C            1.77630918439012        0.15974950727323        1.43864627498560
C            2.23599307094731       -0.89434907736469        0.65155499944305
F            3.27432483349463       -1.59024814231348        1.07246368531580
C            1.66327345685750       -1.22575573870522       -0.57455415761364
C            0.58799900366475       -0.49302866378477       -1.01405577212203
H           -0.07591433052654        2.30681942378815       -1.37441124645850
H           -1.42412260932576        1.20375264506207       -1.67846559935361
H           -1.39435099984334        2.18663099375920       -0.19909747321146
H           -0.82666948427160       -1.32746433393988        0.98890846653788
H           -1.72249489317391        0.22589475387073        1.32604507412904
H           -2.15457635798746       -1.56557153878297       -0.96807150097549
H           -2.99022652428132       -0.12354893117858       -0.61298888551473
H            0.34252201972149        1.73391713496457        1.57240443561015
H            2.28691791720836        0.40561774016159        2.36108893867817
H            2.08437024463074       -2.02584155843669       -1.16976431102638
H            0.13322333203058       -0.71610645755449       -1.97123009404530
