47
 energy: -80.234441434988 gnorm: 0.000250839028 xtb: 6.5.1 (579679a)
C           -3.16024664923090        1.32799247741252       -1.83458128209696
N           -2.06304427930538        0.56482269974926       -1.24722981561598
C           -2.07654682596606        0.11785301237916        0.07836276248855
C           -3.15213873692103        0.55624087803690        1.07259089829861
C           -3.13578217826882       -0.40458224295595        2.27567258305405
C           -2.85105774561961        1.97968030546239        1.56740067997260
N           -4.48485752176825        0.53818682665754        0.46397839443177
N           -1.11799336577154       -0.57896856909799        0.56637179656448
C            0.00947640150034       -0.92788074377717       -0.21117374904692
C            1.15211220586467       -1.38961536728479        0.55129791119107
O            1.19118190177849       -1.44057119744594        1.79135020095530
N            2.23074797862292       -1.84466290613519       -0.19123853776121
C            3.51696667512176       -1.99857129355383        0.47021849712579
C            4.19083428617078       -0.65405876932942        0.65962091151038
C            3.92591176096609        0.11133512147544        1.79423831721606
C            4.50630484630975        1.36115417189291        1.95804358645577
C            5.35072803160591        1.82626138205089        0.96645538412478
F            5.92082300801023        3.03829781034595        1.11827733064209
C            5.63941189525944        1.09600282479759       -0.17120724163913
C            5.04822007655494       -0.15211125617308       -0.31719571839125
C           -0.02999888729688       -0.76700700324433       -1.58750057689196
O            0.89367695644639       -0.91223132579804       -2.43237788128091
C           -1.40868979617979       -0.36049794906107       -2.17536795728975
C           -2.26585067924913       -1.62754065872157       -2.40282905444895
O           -1.17249318502335        0.27356812941933       -3.40607509987302
H           -2.81788818992277        1.75336077040379       -2.78035667384757
H           -3.44331063170883        2.14484703135588       -1.17397812534866
H           -4.04301919410656        0.70841776192662       -2.02214094577167
H           -2.17106483857092       -0.36399912763811        2.78224542991357
H           -3.92089008724656       -0.12890712040866        2.97841822962174
H           -3.30761385222038       -1.42654222089011        1.93836991917403
H           -3.55781846576214        2.26059041505456        2.34809035552312
H           -2.93199996294674        2.70275250407530        0.75669490125829
H           -1.84131835074183        2.02412997016146        1.97661361326535
H           -5.14290981074524        0.96825682687735        1.09809405049801
H           -4.78250416681547       -0.42085673751500        0.33265210124143
H            2.28041672285074       -1.54633725646667       -1.16017606956201
H            3.35381340499154       -2.47908539044012        1.44093607833684
H            4.14305436352497       -2.65109223587677       -0.14498764943185
H            3.25812864693832       -0.27407466844889        2.55755872078466
H            4.31479273975947        1.96356086628811        2.83668525752634
H            6.31215055701281        1.49303130939449       -0.91985242528274
H            5.26740375968949       -0.74220738259820       -1.19974701161409
H           -0.23237452444223        0.07440021929665       -3.61509518184831
H           -1.70078224452934       -2.32779491250094       -3.01545809570350
H           -3.18733977062362       -1.37171560743075       -2.92259714321274
H           -2.50662227799374       -2.09382937172229       -1.44907467521327
