42
 energy: -83.611383838357 gnorm: 0.000555581973 xtb: 6.5.1 (579679a)
C           -4.67310026564189       -1.13464793546247        3.06977152923388
O           -4.18115048172130       -0.51138714314587        1.90424265494994
C           -2.92045369432494       -0.96448585245166        1.47842813498023
O           -2.36531283263158       -1.85159225714950        2.16274065778578
C           -2.40198588824628       -0.34182006740791        0.32933133304172
N           -1.20434960685993       -0.87912139412974       -0.07766361039655
C           -0.54345049840474       -0.42573683591412       -1.08229103786741
C            0.75463115767844       -1.09683539543520       -1.49189962898433
C            0.77945635829205       -2.51850521206697       -0.92319153494300
C            0.94468857015704       -1.15092195123142       -3.01141038448504
N            1.89936154704064       -0.38844769974164       -0.86521818667146
C            2.35442396266460        0.83364301217477       -1.19246052039301
O            1.93368805327984        1.54135092035935       -2.10726744835651
C            3.45449300902324        1.29644613487228       -0.31883218628278
N            4.06460994607513        2.44851026563874       -0.36513718590988
N            5.00973383496937        2.43302804833887        0.62134803591336
C            4.92333806808364        1.28108967103720        1.20550301346863
C            5.73990289697780        0.77689725495331        2.33215457269521
O            3.95994425948057        0.51050756946286        0.66647554424839
N           -0.92774258336302        0.74894595590716       -1.75176304785845
C           -2.00285027338035        1.47954104966590       -1.33214967678527
O           -2.09272139005475        2.66578719060606       -1.67791314963925
C           -3.13586226853294        0.67094545814314       -0.60688893404184
C           -3.93182765633704        1.72605469990504        0.23925508391834
O           -3.87879979774140        0.09440218169473       -1.56649014386192
H           -5.64175579496066       -0.68706268887854        3.29992496218064
H           -4.80341822690078       -2.21523462901741        2.92480109799570
H           -3.99800548209457       -0.98343020084660        3.92208979451510
H           -0.02052917133379       -3.10651697580778       -1.37161329700351
H            0.62525481534990       -2.49341315814423        0.15598115371581
H            1.73261278359897       -2.99718399761666       -1.13901872051413
H            1.88420755054304       -1.64850914109296       -3.24764706640456
H            0.12658518455308       -1.71766415788607       -3.45543808228855
H            0.96121317486167       -0.15623175283097       -3.45200272168931
H            2.36111086147390       -0.86783597609884       -0.11096406589210
H            6.27684637052464       -0.12222998680328        2.03114045459993
H            5.10055488398265        0.52008329317271        3.17663939289644
H            6.45305918381685        1.53955939627717        2.63443022107619
H           -0.22489299306220        1.23317689161708       -2.29185158605411
H           -3.38015307094935        2.02260464963224        1.13262571904729
H           -4.89651434825695        1.31287738108670        0.52673420476679
H           -4.11484114762504        2.60990938462058       -0.37450534471796
