42
 energy: -82.984150910420 gnorm: 0.000599430245 xtb: 6.5.1 (579679a)
C           -2.43706829098769        0.09557425883213        3.84727140751898
O           -2.22231366469033        0.21823065043853        2.43488931150973
C           -3.05718666011676       -0.43525323229309        1.64244794995875
O           -3.98111950736669       -1.10571124521514        2.02421637325557
C           -2.70095257146460       -0.24275221925537        0.18095068707608
C           -3.78764736561294       -0.32103510457570       -0.83627617378508
O           -4.95565746025163       -0.18082185893655       -0.57706539832640
C           -3.29494829414176       -0.55279197168935       -2.26517377466321
O           -4.02282813044182       -0.93020616589962       -3.16125309422498
N           -1.97874905873377       -0.31526058297788       -2.44176212791821
C           -1.03773359588231        0.17902879412844       -1.45417427133318
C           -0.88085441547287        1.69846093012388       -1.62331421179690
C            0.29953463812391       -0.63175930825567       -1.60278907331219
C            0.01871356045228       -2.09138665957214       -1.22983903742635
C            0.87470960613972       -0.56665266747974       -3.01913397350723
N            1.26151761802777       -0.13132770751198       -0.62553300177997
C            2.09950904614952        0.91183907774731       -0.80056694672353
O            2.10964406243618        1.66867849416566       -1.75759093901680
C            3.04811714099000        1.07208791045168        0.33010965463248
N            3.94984876974178        1.99155521311592        0.48176263740726
N            4.59418492256914        1.72254245294521        1.65118214447419
C            4.04741932045881        0.65417334225609        2.14257578727929
C            4.40004424675820       -0.05213957800550        3.39292653323336
O            3.06035721972375        0.19312027840051        1.35641951180235
N           -1.48001105999241       -0.01679382219142       -0.10936056055311
H           -3.49011853912350        0.26498717690736        4.08308228237049
H           -2.14460890108404       -0.90323790347034        4.17697220805044
H           -1.81204640652168        0.84890511179625        4.32112991535485
H           -1.64899876174938       -0.37328980008233       -3.39307206153109
H           -1.86950853396985        2.15350275537852       -1.59629974786919
H           -0.28143937639846        2.09953096350629       -0.81026289964453
H           -0.40417895428073        1.92580843931506       -2.57296184039962
H            0.92918414412671       -2.67835233560741       -1.33394617251763
H           -0.33128166639740       -2.15817503224795       -0.20054313789103
H           -0.74466920460977       -2.50233448389616       -1.88832142122013
H            0.28965964765831       -1.20112744878096       -3.68243660559520
H            1.89766396882822       -0.93951151891244       -3.00463559004474
H            0.88046127610833        0.44617504386936       -3.41478866832180
H            1.35240093108056       -0.66813420596124        0.22285555702944
H            4.66389273584262       -1.08587659612615        3.17092429255652
H            3.54690478175003       -0.06210183904729        4.07061858492933
H            5.24015278232747        0.44576539461189        3.87076489096096
