43
 energy: -83.118905723476 gnorm: 0.000874768780 xtb: 6.5.1 (579679a)
C           -4.13126931935332        3.58027505957527       -0.56079291495721
O           -3.86733519248565        2.18430703656726       -0.29453972387308
C           -2.62324801938429        1.77505800090626       -0.50136317255408
O           -1.72520635210305        2.47061807555317       -0.88566503483174
C           -2.43824135737480        0.30476868838979       -0.18687592792245
C           -3.46052478039359       -0.55448225073678        0.28178248508756
O           -4.67723728244431       -0.20684653067171        0.51005553464266
C           -3.15705465580797       -2.00229029184525        0.51877648336531
O           -3.98057935847868       -2.81243952510251        0.86945748374821
N           -1.85629384506803       -2.31692611339408        0.26848941024702
C           -0.82259762831991       -1.41559841874032       -0.10262782002627
C            0.01452359315580       -1.98292261578977       -1.25135228770234
C            0.16592952553827       -1.18600962513410        1.25526067365130
C            0.59692677433136       -2.55182026739979        1.76566169606096
C           -0.65636996109646       -0.45642204718711        2.30976652288612
N            1.23155483725925       -0.35631567357592        0.84094628083243
C            2.44893838339124       -0.75920005840070        0.34176878802405
O            2.80543819984979       -1.90928800719340        0.22151773313785
C            3.25812847371466        0.41777935782210       -0.01912857663578
N            2.87890507050735        1.66006471500142        0.06959924711751
N            3.91166748937699        2.41694820073330       -0.37197498441999
C            4.86346491492783        1.59202959618429       -0.70644746101259
C            6.19923736091179        1.92610869998429       -1.24297014384292
O            4.50618364899530        0.31746036617318       -0.50596891001244
N           -1.22137000237768       -0.13462160379243       -0.39472259482853
H           -5.14723939015804        3.76972759914741       -0.22609262228971
H           -4.03417858029222        3.76682771185787       -1.63151135912172
H           -3.41847833429461        4.19462222350454       -0.00872981540105
H           -4.87775663709068        0.74052085263455        0.33987667632785
H           -1.61900399506166       -3.29528204268530        0.35932817018875
H           -0.65905304351613       -2.18570415102196       -2.08224011285247
H            0.51455108714239       -2.90324033472022       -0.96343088494601
H            0.74860788444019       -1.24303672703931       -1.56003491436293
H           -0.23857693819618       -3.02505027305163        2.27746056200111
H            0.95265781005182       -3.21220874445341        0.98006724612471
H            1.41082763800697       -2.40593630143560        2.47581201761101
H           -1.59864459242128       -0.96997721777229        2.49000847864410
H           -0.08563668317890       -0.44926747277960        3.23822557175302
H           -0.85788321939540        0.57164799483158        2.01689976786891
H            1.04027637726897        0.63890850882181        0.81286046000251
H            6.97067569924285        1.60002286917484       -0.54466294205298
H            6.27535055335857        3.00017944767653       -1.39434880723863
H            6.35993084682123        1.40701328937666       -2.18773727843885
