47
 energy: -80.229583978078 gnorm: 0.000214041753 xtb: 6.5.1 (579679a)
C           -3.80506881230821        1.14156946429851        2.08863229860940
N           -2.66056577368671        0.39170422742219        1.57267797894982
C           -2.52338263353749        0.08834769663602        0.23045770905560
C           -3.55785734628373        0.48868991573346       -0.81676631750969
C           -3.34237638412848        1.94948984298958       -1.24213758947525
C           -3.38716240527138       -0.41422476193823       -2.05143347979537
N           -4.91878543088565        0.33566411613476       -0.29748627919139
N           -1.47222988124469       -0.53461467010591       -0.20526766735905
C           -0.49551810597856       -0.95545958544091        0.64208382512782
C            0.70664731500842       -1.65783226441821        0.01191017795219
C            0.28246887838525       -2.43771921419789       -1.24769594058935
O            1.28591046169631       -2.54571600346587        0.92093913885709
N            1.68643319059173       -0.58599121250043       -0.32852360187981
C            2.95232161507838       -1.10634034697306       -0.86732991026947
C            4.03472983634068       -0.07068956063892       -0.67140801396112
C            4.80828004066070       -0.07003789992644        0.48813174346711
C            5.78834977791687        0.89211592926267        0.68991849784883
C            5.97241194644247        1.85313284939095       -0.28723759548988
F            6.92204900114383        2.79085489316698       -0.10099393617195
C            5.22527395029908        1.88666695208177       -1.45000144048241
C            4.25102780290494        0.91426384832403       -1.63316610788148
C           -0.55919824867088       -0.76825439298916        2.01987167837953
O            0.32394762270279       -1.19431752040320        2.84562118896433
C           -1.73810681894593       -0.02839109936962        2.52596525440374
O           -1.92410621322773        0.24165305374018        3.72260911713682
H           -4.65805319960752        0.47778303127711        2.23604800019457
H           -3.52772833942948        1.58684450610992        3.04609667450207
H           -4.08830123697795        1.93062961570800        1.39896767201001
H           -4.04225444845046        2.21023965542315       -2.03519881131453
H           -3.49655789886571        2.63398344205733       -0.40934345326973
H           -2.32723847003397        2.07753314807437       -1.61672634137115
H           -2.39709588182375       -0.28135844236365       -2.48608658251235
H           -3.50635310332293       -1.46022320615477       -1.77071076484163
H           -4.13925438094718       -0.16127429269277       -2.79687569017102
H           -5.15805763115532       -0.64769668403888       -0.27121091966485
H           -5.56317911362645        0.77876226818037       -0.93611251255454
H           -0.10907840277486       -1.75430798747805       -1.99853074178376
H           -0.49528943658377       -3.15086651574638       -0.97631405874377
H            1.12890069873017       -2.98341798686438       -1.65992095811476
H            1.25913456414149        0.01170190093013       -1.03232711118604
H            3.21373448898543       -2.01849438825652       -0.32057994478153
H            2.86226237982441       -1.34704996971051       -1.93563694526450
H            4.65286198362026       -0.83518095052240        1.24157575675562
H            6.40148880345268        0.89706576159257        1.58191815257897
H            5.40521411874878        2.65226367874061       -2.19293796226211
H            3.65869560229987        0.92151102882197       -2.54090276509427
H            1.07065651880505       -2.14300986991261        1.83627357818204
