42
 energy: -82.981324945294 gnorm: 0.000445488271 xtb: 6.5.1 (579679a)
C           -5.86524023817246        2.52967018692781       -1.07980422142158
O           -4.60844244136408        2.07386052643093       -0.57763786742397
C           -3.92176661701409        1.23095475042166       -1.37103211862325
O           -4.32958613332158        0.87209651175729       -2.45783430430746
C           -2.66142627927458        0.81687600042259       -0.77453960925110
C           -2.14920970081828        1.17458963617772        0.46037975630580
O           -2.43479906258736        1.80938769771954        1.43818658294636
C           -0.51315679692891       -0.47101128810995        1.63885123525089
C           -1.74023653350270       -1.13695378284165        2.13125220217822
O            0.59119824694487       -0.55093632889025        2.07551791688592
N           -0.72383284562600        0.42054006251089        0.47445576112602
C           -0.75040782329108       -0.28814785154616       -0.83382895623867
C            0.34409450656780       -1.21927994865078       -1.27306359930559
C            0.05688883570770       -2.63540453975608       -0.74327004299494
C            0.38484664870283       -1.21309334015964       -2.80812616043368
N            1.62081243573649       -0.74053148710511       -0.73956804774225
C            2.79517069851431       -1.37061972970758       -0.95669527802599
O            2.94283667484550       -2.38923040670897       -1.61028740327409
C            3.93498241020867       -0.67531189470362       -0.30810092678741
N            5.18464541699852       -1.02034988813627       -0.32048896089798
N            5.85991382631023       -0.07954066072429        0.39734106851974
C            4.98098848088268        0.78266593429757        0.80406804894237
C            5.21082642505251        1.99517742053571        1.61884432713275
O            3.74261573880280        0.46426493706857        0.39216134045863
N           -1.81657882843532       -0.04099448425298       -1.47131276663493
H           -6.54176145695905        1.68439561607948       -1.23122261092869
H           -6.27309092857591        3.20704568942197       -0.33153226929226
H           -5.72799131161066        3.05538939048835       -2.02849609739050
H           -2.36114679930330       -1.47905643433145        1.30629491353559
H           -2.31004708687984       -0.39991907982652        2.70214066746917
H           -1.47140373420424       -1.96342397087112        2.78472558318220
H            0.00239736250035        1.13164584947924        0.49938758294533
H           -0.94513591856232       -2.93675785729618       -1.04288775596677
H            0.77939157770139       -3.33845489322133       -1.15416676895027
H            0.12649638290992       -2.65105358669131        0.34218116807656
H            1.11987565734152       -1.93198922345907       -3.16465675016873
H           -0.59727418671940       -1.48100778980122       -3.19469420670110
H            0.64936692079919       -0.21966675558883       -3.16588576536364
H            1.63064520999704        0.08611649244379       -0.16761173866100
H            4.68897382547663        1.90812630786977        2.57182073045684
H            6.27606651947699        2.12015837473797        1.79796593004636
H            4.81950092167628        2.86977483758534        1.10029941132506
