42
 energy: -82.981327261340 gnorm: 0.000256232628 xtb: 6.5.1 (579679a)
C           -5.87941750137209        2.50850112107816       -1.07310186280801
O           -4.62025919732261        2.05667813312784       -0.57309514288149
C           -3.92457016485086        1.22845474523547       -1.37418443923027
O           -4.32843937245329        0.87481429867714       -2.46422113420884
C           -2.66071532125710        0.82204424436211       -0.78003420646491
C           -2.14560963789318        1.19119661777732        0.45038084876651
O           -2.42785633657237        1.83627588562119        1.42218151357340
C           -0.51683970710174       -0.45032155366617        1.63628535652749
C           -1.74571461296557       -1.12500509140567        2.11300205483538
O            0.58202858364706       -0.52028925776544        2.08828299131161
N           -0.71981496305808        0.43695156154686        0.46779559523654
C           -0.74770641801104       -0.27963566712581       -0.83570011435168
C            0.34476350806446       -1.21644217739039       -1.26787396742748
C            0.05389286602005       -2.62791182576745       -0.72743851915026
C            0.38543627726503       -1.22184515342458       -2.80288545920551
N            1.62294103540560       -0.73786334043057       -0.73752950996403
C            2.79554698341092       -1.37114925543823       -0.95555130185235
O            2.93935579911278       -2.39173566018540       -1.60688789592535
C            3.93891784170179       -0.67660474498460       -0.31261991794290
N            5.19021045190457       -1.01485851049042       -0.34365786401267
N            5.86908300497531       -0.07777780286701        0.37554694798540
C            4.99063679175785        0.77559879131672        0.80159834735879
C            5.22437444476379        1.98087583159735        1.62589180548643
O            3.74909332356957        0.45502683212678        0.40096015137336
N           -1.81568743327895       -0.03882492211535       -1.47284646786669
H           -6.53816950043990        1.65781267732332       -1.26769392235438
H           -6.30936228372816        3.14741848011502       -0.30372643856570
H           -5.73999638032764        3.07486898824284       -1.99792007293507
H           -2.36142681490841       -1.45794953294386        1.28054555053282
H           -2.31959246117381       -0.39593698150244        2.69009563398280
H           -1.47933085910573       -1.95873354792431        2.75813081611315
H            0.00797302891961        1.14641732699571        0.49163996137298
H           -0.94934123062340       -2.92867245535527       -1.02370580064304
H            0.77405379867117       -3.33587351997436       -1.13403985421276
H            0.12484107630525       -2.63587751235303        0.35804543199054
H            1.12026720250659       -1.94353234820503       -3.15409579939816
H           -0.59676567279933       -1.49294866137619       -3.18710239878436
H            0.64989402800640       -0.23123800203912       -3.16851849500411
H            1.63503639611205        0.08736869280427       -0.16355335433968
H            4.68304885872376        1.89844481866557        2.56822698161273
H            6.28807561413710        2.08821416885611        1.82466045561187
H            4.85714495426701        2.86406530925395        1.10384349586104
