42
 energy: -83.020614635083 gnorm: 0.000585106083 xtb: 6.5.1 (579679a)
C            5.20173224762208        0.88267193265068        2.10775676902646
O            3.99468191686777        0.69197485053031        1.36613306134828
C            3.91494214059730       -0.42882588095202        0.64273969214756
O            4.80336941660708       -1.24801841948657        0.60364195961328
C            2.61653762785372       -0.52192192910079       -0.08880461993954
N            1.74172525852598        0.50557997500164        0.14933152583880
C            0.59443843559496        0.51108127547696       -0.43529819869462
C           -0.36587195457219        1.65854975726661       -0.21284423550773
C           -0.00576111988279        2.40010840172558        1.07814810758781
C           -0.27803048866024        2.58878401260839       -1.43296676500424
N           -1.71574351446931        1.09243470138174       -0.10639740335925
C           -2.82217886528726        1.85456447670688        0.04927633523526
O           -2.85236873252651        3.07272344748800        0.02488189725436
C           -4.04763336780521        1.04009421872429        0.24202221305704
N           -5.25943467336933        1.46167334273870        0.42984711573056
N           -6.04613542154543        0.35641051727330        0.55414047644205
C           -5.26629787671120       -0.67296152945116        0.43578463857042
C           -5.63851653582423       -2.10369726097394        0.47764348365776
O           -3.98799445308244       -0.30982412734946        0.23865317280957
N            0.23317522954687       -0.46662457053056       -1.31390435065863
C            1.01844450389999       -1.55478804944243       -1.63799748908126
O            0.61157487589137       -2.38178248308569       -2.44020772336189
C            2.30810813470066       -1.56121274621289       -0.94071951654622
O            3.19866086589826       -2.54354348163841       -1.11723240199089
C            2.95362586819011       -3.67645137001218       -1.95052493804813
H            6.05822159222457        0.92077572593198        1.42993696636795
H            5.09694522198894        1.82782659277525        2.63657282526681
H            5.34042258892539        0.06434851816480        2.81872579860390
H           -0.08159889605336        1.72356807897777        1.92783090980553
H           -0.67957367904142        3.24200981658421        1.22530632588474
H            1.01769124591163        2.76571252607120        1.01006179677395
H            0.75033410564006        2.92664844458338       -1.55240529207997
H           -0.58283933075263        2.05393228978647       -2.33044270008571
H           -0.92262202826309        3.45472460112084       -1.29584994866160
H           -1.80188529462241        0.10253577326776        0.05358386984547
H           -5.43860195056289       -2.56499306829497       -0.48975313567704
H           -5.04152610728403       -2.62362372855224        1.22623584321080
H           -6.69493119003005       -2.20142407984787        0.71557289458887
H           -0.66426702813437       -0.42717974771096       -1.77266808939781
H            2.07821397514304       -4.23322785612803       -1.60930590192321
H            3.84365371965212       -4.30099447069496       -1.86128224690824
H            2.81731653720722       -3.37763847737352       -2.99214472173832
