16
 energy: -34.150555141686 gnorm: 0.000647430448 xtb: 6.5.1 (579679a)
C            2.72302156783014       -0.35531950786924       -0.15216311806676
C            1.25549867396583       -0.11024928624562       -0.18295426947909
N            0.41922296331147       -0.77514894935455       -0.87948470850965
N           -0.88267102401761       -0.22537335869725       -0.61522265149887
C           -1.67721404473617       -1.29950913026780        0.00443798439737
C           -0.63313940111013        0.88925479181597        0.28281373695501
C           -1.31750141397569        2.04866277730734        0.37217670855396
O           -1.19374808207918        3.10268646999835        0.97948918291397
Cl          -3.08875469254066        1.76782757228686       -0.40423887595549
O            0.76081594691848        0.88177257337862        0.57420875505844
H            3.04162031985126       -0.56433427943407        0.86828235951762
H            2.96732820836882       -1.20257906738661       -0.78773336296801
H            3.25995429830145        0.52689571824016       -0.49976288304433
H           -1.22197312988680       -1.64518800672431        0.93690065724109
H           -1.73850976974593       -2.12872086484318       -0.69923572671680
H           -2.67395142045532       -0.91067845220463        0.20248721160148
