47
 energy: -79.491790598937 gnorm: 0.000493350341 xtb: 6.5.1 (579679a)
C           -3.79266478034976       -1.95585360768221        0.71067762900928
N           -2.64309379839693       -1.37696962407443        0.00947328874579
C           -1.83268072861853       -2.36219965701152       -0.64931590570463
O           -2.07553258591545       -3.52514472208515       -0.52164387842516
C           -0.75789231910291       -1.81461963130455       -1.56102910505150
C           -1.45320211946594       -1.56371761201110       -2.93722404557195
O            0.29021595990657       -2.71546650018829       -1.69165762453418
C           -0.28966645682357       -0.48035638797435       -1.08706245765062
C            1.01538274784519        0.09302924319120       -1.58921658452745
O            1.48505258518126       -0.22754927800928       -2.66508305171074
N            1.53690648465730        0.99186454225355       -0.74687269806309
C            2.79167314164614        1.67875605577815       -1.03799668090303
C            3.94549664365552        1.03997368065915       -0.29486059473339
C            4.22711814006504       -0.31363389260902       -0.47348901711775
C            5.28441661723160       -0.90675827705660        0.20005954426787
C            6.04947668810973       -0.12091511361827        1.04445667544597
F            7.07332534017346       -0.68812571194675        1.69844812730648
C            5.79812044943399        1.22449308471140        1.24233299408837
C            4.73299900061151        1.80166698169175        0.56382653111391
N           -1.04617273480845        0.28453315490449       -0.37411132378677
C           -2.26191699598571       -0.11249174294967        0.09550348636658
C           -3.03377078302309        0.98642177670108        0.77988300114335
C           -2.57201040352170        2.35786195424055        0.25612127621205
C           -2.72061040606289        0.87443824761554        2.28536931932404
N           -4.45922804736094        0.82530557209158        0.57256731912092
H           -3.43888638131114       -2.39807909590138        1.64124597109150
H           -4.51796743630084       -1.17067413430895        0.91126028163475
H           -4.22129568522455       -2.73047150788679        0.07661425668672
H           -1.86752198749423       -2.50628763922564       -3.28713407074302
H           -0.69082263052112       -1.21397811541484       -3.63108452452638
H           -2.24127148848204       -0.82284001964926       -2.83911285902398
H           -0.03979035986532       -3.62534390198533       -1.72086004942757
H            1.05814544445269        1.20533410597076        0.11157114568608
H            2.95332362443001        1.62158263694220       -2.11960552598658
H            2.67471352794212        2.72421778957635       -0.74560310638189
H            3.61451313095232       -0.90831328605148       -1.14086698372084
H            5.51212202545959       -1.95751697545753        0.07510234854867
H            6.41607453048941        1.80557285494497        1.91437534750908
H            4.51517372680982        2.85315636055352        0.70700964990798
H           -2.69165071227334        2.40629677631289       -0.82464345907915
H           -3.18463107688207        3.12987636003534        0.71708121450464
H           -1.52785293112537        2.53259165204061        0.50710298704454
H           -3.11168034948704       -0.05887511430963        2.68547435218602
H           -1.64556054225729        0.91582422428432        2.45107549566225
H           -3.19292040588988        1.70934639233575        2.79983303586483
H           -4.69973030524616        1.04528444570875       -0.38344454351172
H           -4.96422435726686        1.44875565617350        1.18628281171075
