47
 energy: -80.231995861431 gnorm: 0.000319834401 xtb: 6.5.1 (579679a)
C           -4.27022515871493       -2.19308930030015        1.40732868016459
N           -3.17455218332440       -1.31384941905440        0.99593579061095
C           -3.32423671698678       -0.27340321929010        0.11390119360686
C           -4.67224423953760        0.09013036339900       -0.49762276314113
C           -4.93203943991056       -0.81188856675281       -1.71306575168712
C           -4.63362416999726        1.55889512618683       -0.95365365176121
N           -5.74286349451905       -0.08975482115603        0.47797619847255
N           -2.31520960966199        0.44072625637063       -0.27652469647296
C           -1.05795531930274        0.23396354869753        0.21491670748245
C            0.00969265597830        1.11267475398952       -0.37865420424428
O           -0.08535436891563        1.56589134585065       -1.51235835788971
N            1.05606655811128        1.35411287737804        0.43122387528871
C            2.18955714458777        2.15890773230785        0.00296094167290
C            3.46091093443866        1.34453264867594       -0.11607814254942
C            4.67697962265038        2.00948194654067       -0.26287348025485
C            5.85967743298578        1.29696264523392       -0.38485297742094
C            5.86062548402864       -0.09834722108961       -0.36224551675972
C            7.14505168600940       -0.86474796964736       -0.45283705798160
F            8.32677855806294       -1.07887922298873        2.33787878803622
C            4.64051162800916       -0.75695598020686       -0.21948548766598
C            3.45464656256747       -0.04629108129735       -0.10013444361227
C           -0.85345899923956       -0.74251058709332        1.14399865245556
O            0.34860586065461       -1.02104860492451        1.69808190804176
C           -1.94911666425601       -1.58416275217960        1.57974119195387
O           -1.78981567952927       -2.48464448528154        2.40344320974216
H           -4.91439603253065       -2.41210827287207        0.56244249398367
H           -4.85463825024979       -1.71213041607242        2.18953683893310
H           -3.83701382462549       -3.11720962422208        1.79017171288719
H           -4.11115284673267       -0.72258228731994       -2.42428198391556
H           -5.02703326871069       -1.85443732975410       -1.41493146883976
H           -5.85608068882762       -0.50694087586289       -2.20180447913792
H           -4.39049948500361        2.20517250205266       -0.11144796974786
H           -5.61017521839763        1.83999411754512       -1.34310267363864
H           -3.88404347633678        1.69883388471251       -1.73186771407637
H           -5.71616004169317        0.66094454514799        1.15569280718224
H           -6.63434932395901       -0.04162326063632        0.00629828759310
H            1.06628933884711        0.99611743412735        1.37119058830896
H            2.33422003667245        2.97507334447475        0.71949744504578
H            1.93562722374921        2.60324976019015       -0.96708529059034
H            4.69672312856918        3.09400230539923       -0.28338631114174
H            6.79413285731098        1.83649789913850       -0.50252847942050
H            7.86619726045513       -0.34417062616079       -1.08324533882089
H            6.97728062017099       -1.86404557897722       -0.85474796948242
H            7.58345179647008       -0.96733303666048        0.55399172928027
H            4.61011867577528       -1.84201076538977       -0.20612180034185
H            2.51781258388416       -0.58163201282678        0.01056132162621
H            0.22528085094596       -1.75036671932525        2.33427864799114
