42
 energy: -83.625861799992 gnorm: 0.000960228594 xtb: 6.5.1 (579679a)
C           -5.87515009244940       -0.52245179109769        0.94083748819549
O           -4.54999612343762       -0.43720355926257        0.45449153016355
C           -4.28191640101905        0.66093342915347       -0.34672492047459
O           -5.18401403428167        1.46399200246859       -0.57463028879487
C           -2.90562228651654        0.69157526841937       -0.81135179791679
C           -2.46196974072365        1.76028575096450       -1.64589886683994
O           -3.15529065670054        2.75791914782344       -2.00239057058843
C           -1.05386416217876        1.64021612103905       -2.14364085091703
O           -0.53611303644962        2.40932821606715       -2.96879457217866
N           -0.32699671981215        0.58893185871186       -1.67042631605337
C           -0.76468376339513       -0.38380042795438       -0.68002376348521
C           -0.34618029456652       -1.77550472983103       -1.19756467497282
C           -0.01035198840745       -0.05332539182878        0.71930961362993
C           -0.60005126767844       -0.92199170826504        1.83348823527103
C           -0.25998060996642        1.42043405741207        1.06757804678334
N            1.42172486038824       -0.21165520682706        0.59633344669927
C            2.16058656830881       -1.36046504201773        0.70059122045329
O            1.69577491157357       -2.48286873585790        0.98982227061390
C            3.57031959085655       -1.15407521456106        0.44988581176763
N            4.53905717497779       -2.05472534109603        0.50636515305019
N            5.70442353269729       -1.39292278690412        0.22539476729648
C            5.40170398684715       -0.15381425964586        0.01826496141972
C            6.32734167579483        0.95533200436394       -0.31649467007376
O            4.07566657050999        0.08662168704373        0.13994825875558
N           -2.15198430535008       -0.38488394160583       -0.43980747009731
H           -6.59889864885489       -0.55118832544217        0.11787094918308
H           -6.11579079697861        0.33172445132889        1.58419387321271
H           -5.95006982426542       -1.44284633180737        1.51996457037736
H            0.62871631734152        0.52791514397756       -1.98017629697354
H           -0.90632909557731       -1.98506143611640       -2.10862333776962
H            0.71642257028526       -1.80455305243400       -1.42707538036568
H           -0.57866311819397       -2.54218739522962       -0.46248563491436
H           -0.47854510765077       -1.98501774577282        1.63710372904679
H           -1.66767026888860       -0.70819847317214        1.90946907908548
H           -0.12145133753441       -0.68858266341233        2.78483686303929
H           -1.33119049453401        1.61647368184106        1.11769402463298
H            0.18309897637193        2.07597443311550        0.31835914689408
H            0.18362886092515        1.65432353034387        2.03486240305914
H            1.92881096053213        0.61090899159631        0.30906216871540
H            7.33793927354977        0.56656598756095       -0.41626420220158
H            6.02785625937821        1.43078436785369       -1.25080817582269
H            6.30970308507292        1.71285442906549        0.46745317909361
