33
 energy: -58.530909413793 gnorm: 0.000964396022 xtb: 6.5.1 (579679a)
C            3.73851723113950       -2.99453945586381        0.08799362344039
O            2.52584786327773       -2.27015325894316        0.06917811287698
C            2.66425650783260       -0.88104779346018        0.22913049725483
O            3.83659248722101       -0.40425180687333        0.35941105544862
C            1.49589964936668       -0.14920258494687        0.21115016327466
C            1.52327711752301        1.30207466832560        0.40810481044746
O            2.72383950801955        1.88453281648003        0.70423700496245
C            0.37586917179917        2.00165660453521        0.36948200554865
O            0.23449909497127        3.35939097697162        0.61637827709924
C            0.12756952254850        4.18501077964522       -0.53739871080096
N           -0.84480255146934        1.34055420554821       -0.02912006169182
C           -0.82238481051186       -0.06424205714794        0.07127722379954
C           -2.19739677300214       -0.70313015747889       -0.00551203645852
C           -2.12581690531432       -2.17975738859281        0.40457940830043
C           -2.72553529852434       -0.57026903897718       -1.44124774975352
N           -3.09794028837427        0.04541823190278        0.87943661965948
N            0.23033415176776       -0.77487196839308        0.12606317801351
H            3.48699993868589       -4.05106644131899       -0.02438241498033
H            4.39945063273033       -2.69309530114737       -0.73518212459154
H            4.27735891338282       -2.85213109373177        1.03369150574903
H            3.39866862742990        1.13151804182973        0.62865521096968
H            1.03904523735431        4.13783258654460       -1.14761713375930
H           -0.01878455888623        5.20752995782541       -0.18707795939622
H           -0.72931146646694        3.89195421454334       -1.15576938359539
H           -1.67507204743075        1.74210629278402        0.39556900282790
H           -1.44137886855080       -2.71547568808696       -0.25438608183505
H           -3.11247287327645       -2.63595663208044        0.34299609085521
H           -1.76030809138343       -2.26623093144357        1.42770206647150
H           -3.72459760766827       -0.99792630557915       -1.51871794544739
H           -2.06648740535957       -1.09273316204617       -2.13488583380362
H           -2.77138385356663        0.48224102448701       -1.72197636116615
H           -4.05359240281967       -0.21551849828502        0.68510363406161
H           -2.91076285244613       -0.20022183702711        1.84313530621651
