20
 energy: -37.644275221414 gnorm: 0.000536364478 xtb: 6.5.1 (579679a)
C           -3.51913774538238        0.41189654344479       -0.43541225316014
O           -2.08275389145288        0.46482132976714       -0.28676323531984
C           -1.45502088461351       -0.67946364566376       -0.14846503511127
O           -1.93326105226962       -1.77389771218940       -0.12954290031092
C            0.02874291085129       -0.43399829380435       -0.01185218990479
O            0.89650665130609       -1.42343458265492        0.11503812951480
C            2.10450152426365       -0.85477294465481        0.20570898500811
C            3.32445618940086       -1.66773309582339        0.33444522753096
N            2.01003720280420        0.44717315201097        0.14051564427912
N            0.70237697042531        0.69618425859219        0.00331836966388
C            0.23895140740903        2.06217886961733       -0.11008542257248
H           -3.77209648863349       -0.23275610395559       -1.27798065461363
H           -3.83818287059676        1.43481921781171       -0.61582934726083
H           -3.96147101256195        0.02076094719140        0.48158977704608
H            4.14086353206627       -1.05446670591632        0.70912773623436
H            3.14228768538918       -2.51162079606363        0.99847682989814
H            3.59795744244385       -2.06360975412700       -0.64600786377984
H           -0.22867164708243        2.19133475229753       -1.08478239987751
H           -0.49572411883644        2.24960888505648        0.67052730394113
H            1.09963919506948        2.71697767906419       -0.00289270120514
