33
 energy: -58.551965899860 gnorm: 0.000737469414 xtb: 6.5.1 (579679a)
C            4.34524541052094        1.01551016007157        0.49282268817526
O            3.35320266044825        0.49324229143103       -0.38619359824292
C            2.06800575993973        0.61014258252917        0.01931236103014
O            1.77654174369489        1.16907410455852        1.06240088498555
C            1.09781301098062       -0.16734644126907       -0.87703839091871
C            1.51443122512055       -0.11960707362551       -2.35148874965948
N           -0.23978332670242        0.40275097826968       -0.74601298694822
C           -1.00083368107132       -0.02034230064978        0.19260104998653
C           -2.37967463542824        0.60876682587811        0.34859406414121
C           -2.66155649296890        0.97595293499634        1.81054986630164
C           -3.43587871757728       -0.38598268075967       -0.16852141008085
N           -2.41503665245394        1.84034549663325       -0.43674108918002
N           -0.67460074979038       -1.01485622652496        1.06579473140058
C            0.34362396561608       -1.98634762269743        0.69602367662073
O            0.31201434181972       -3.10804623177381        1.27717796570641
C            1.17935313357070       -1.54923852664601       -0.28423416389352
O            2.21798542480944       -2.38101119616590       -0.77785232857413
H            4.27389358858126        0.54634364217284        1.47885299340557
H            4.22592712145425        2.09743325960279        0.60493437937305
H            5.31365452487420        0.79550589673576        0.04627942220349
H            0.79510119311021       -0.68257260499157       -2.94501288922564
H            1.52955825522205        0.91151475605761       -2.70339272312672
H            2.50222773627465       -0.55773608712180       -2.48449188266190
H           -1.88651926329132        1.64630918575658        2.18382215937592
H           -3.62286883185623        1.48332458125603        1.87944157976623
H           -2.69836635678682        0.08808668497308        2.43930876375560
H           -3.25704714728394       -0.60303745756297       -1.22114695159179
H           -3.39333835699862       -1.31667353944192        0.39641529308555
H           -4.43220055026612        0.04076830524736       -0.06510371255803
H           -2.11135892858996        1.63150844121345       -1.38340724023213
H           -3.36871029492197        2.16831635258079       -0.48715638598275
H           -1.40564144101331       -1.40575298708663        1.63821931458022
H            2.13483733096249       -3.22634550364791       -0.31475869101608
