43
 energy: -83.872687938274 gnorm: 0.000798110733 xtb: 6.5.1 (579679a)
C            5.16557932299538        2.70042209373084        1.31927898984308
O            4.16888946695322        1.79110922870863        0.84757407101833
C            4.44497546426955        0.49767381837978        0.96463346454732
O            5.48941749414551        0.08611434210159        1.44351308710226
C            3.37321522283466       -0.39351434075433        0.46850807259484
N            2.25766216566052        0.20548195406983       -0.05466169710007
C            1.29393510462401       -0.54354680047173       -0.48430552389033
C            0.04744051017748        0.04749677708173       -1.11615715601422
C            0.29767802532740        0.04054608001256       -2.63621240267086
C           -0.14964700917039        1.48125343653426       -0.59965198254144
N           -1.04139288036281       -0.86771883979789       -0.77297859335958
C           -2.47109714623316       -0.41709174494548       -1.17908232769783
C           -3.19438492697832       -1.76446024506602       -1.51608936392756
O           -2.54479953061197        0.48852237559433       -2.10281017803657
C           -3.09247928366837        0.06597068014585        0.17744967620774
N           -2.47993642557879        0.49360384833447        1.23707615209694
N           -3.45163703671606        0.88566467174461        2.13801017507168
C           -4.58446781137150        0.66825934498910        1.56031976284220
C           -5.94002878692785        0.91932545146470        2.10696116442558
O           -4.43430146115247        0.15288253364234        0.32421236795247
N            1.36714139691943       -1.90339217642342       -0.43982984308330
C            2.42764314427502       -2.62348395133732        0.05544071256438
O            2.42006783219349       -3.84615715248417        0.06625442951283
C            3.50762775019495       -1.75977571686768        0.54309223296849
O            4.57945659178427       -2.38371543695932        1.04812808975607
H            5.32256741951384        2.56084185306006        2.39117718914440
H            6.10739387743808        2.53110305079191        0.79296418148166
H            4.79461496195500        3.70324715211339        1.11839953416318
H           -0.55021085973076        0.48137288868092       -3.15839302350982
H            1.19653531733172        0.61252236702589       -2.86604674883346
H            0.43136473551409       -0.98431170850477       -2.98131095928317
H           -0.32821065999399        1.46678415806381        0.47551699405294
H            0.74601106306704        2.06851464019748       -0.80178807998166
H           -1.00158453604239        1.94371209484837       -1.09617326843137
H           -1.04928450746580       -0.97806667500550        0.24053379079487
H           -4.24381168116282       -1.55884818028462       -1.72032713380454
H           -3.11334679803110       -2.46926198790532       -0.69093183163110
H           -2.73176738813182       -2.18996376744231       -2.40447802379572
H           -5.85811534541818        1.29981275199929        3.12216515032016
H           -6.52033152686826       -0.00270129022433        2.11181434835632
H           -6.46730473725180        1.64712154677701        1.49033871875710
H            0.56228035770206       -2.42388457259886       -0.77588213835434
H            5.24664311400714       -1.72946555301418        1.35374892036420
