46
 energy: -87.022808694172 gnorm: 0.000559482172 xtb: 6.5.1 (579679a)
C           -3.41493114756098        0.43598978100258       -3.18179485759506
O           -3.23535084604156        1.54305325034660       -2.30896069488234
C           -3.53965176753508        1.33029134040456       -0.95912039868666
O           -4.71894194895112        1.93016805353576       -0.53945120457542
C           -5.90014868692847        1.13674837560104       -0.60255230829230
C           -2.70770566848176        0.62103840676085       -0.13358996819469
N           -1.52228425188083        0.13495884001952       -0.70557758863453
C           -0.63120482974111       -0.47737118823286       -0.00433808461166
C            0.60358780645610       -0.95007021394599       -0.77967270866756
C            0.51454097920563       -0.46410898188463       -2.23450946863470
C            0.70721828366181       -2.48158298643325       -0.77286920013259
N            1.78465515178957       -0.32573211997528       -0.16407654267662
C            3.05604024715247       -0.57411384208632       -0.54756693577954
O            3.41357312270038       -1.45060994921422       -1.32127995695694
C            3.99473440360119        0.36044584409022        0.11763779354249
N            3.66734607295947        1.33353139162616        0.92013903563886
N            4.82877959929659        1.95100686374253        1.28311121935267
C            5.78789447662372        1.31979709396138        0.68005357610990
C            7.23810009474794        1.60738351937950        0.74696460633680
O            5.32995015180453        0.30587684998344       -0.07187515106639
N           -0.74592611287400       -0.68913773593335        1.33898994897304
C            0.20371924633138       -1.41743327697991        2.17029333480210
C           -1.96609344916418       -0.32907694511226        2.01816838943599
O           -2.09053156858560       -0.62742481982796        3.23620227645998
C           -2.90179949141846        0.33695623583951        1.25136050450834
O           -4.10360464760820        0.69014516729914        1.88242949174518
H           -2.77828558506149       -0.40691911697066       -2.88396778843434
H           -3.12599222992235        0.76512672851969       -4.18223498106618
H           -4.45940657815513        0.10077459529844       -3.20273438694013
H           -6.70704954708003        1.72816257975935       -0.16475076969644
H           -6.16168332206058        0.88725016016556       -1.63820512809740
H           -5.78235197472064        0.20894286515698       -0.03048633158346
H            0.42134631079190        0.62062698671531       -2.26614211189998
H            1.40828642532031       -0.76390791909923       -2.77913665074598
H           -0.35770835183389       -0.90511805267729       -2.71391358213077
H            1.03334472725754       -2.85998739196378        0.19222716517606
H            1.41806063088817       -2.81578645257182       -1.52659540583049
H           -0.27020380576632       -2.90289563701803       -1.00514102111015
H            1.63022712910885        0.51137891839014        0.38178595149766
H            7.77297575097204        0.74482631460032        1.14398090116459
H            7.41006762241862        2.46812852414027        1.38816949130265
H            7.62473181283157        1.81307115658445       -0.25087105070324
H            1.21595154134687       -1.32180522519624        1.78878910356035
H            0.16658161413221       -0.99887771727193        3.17832016535764
H           -0.07115439881707       -2.47393662253225        2.22673124084740
H           -4.03970399121056        0.35021835200020        2.78950808181742
