16
 energy: -33.394331986432 gnorm: 0.000763263257 xtb: 6.5.1 (579679a)
C            2.40671548250460        0.07457765542356       -1.21789087226645
C            1.55476121392489       -0.32940446983801       -0.08830861631039
N            1.91720179510167       -0.94181130983300        1.01372238092324
N            0.82302519249622       -1.11798602828391        1.75015907858914
C           -0.18024438404199       -0.60579833608038        1.07605905643051
C           -1.53838541694370       -0.58611544335397        1.51795535481703
C           -2.14125940576393        0.87243691286520       -1.11081868972221
O           -2.00893351892729       -1.00435867847181        2.51615526713933
Cl          -2.78958816936134        0.19757961457283        0.41375475459339
O            0.24108483782794       -0.09382421368728       -0.09979987383501
H            3.45562195416826       -0.03135196464917       -0.94938292488084
H            2.18804713195154        1.10504847043806       -1.49587402116489
H            2.18783861318396       -0.55508031523442       -2.08205665388367
H           -3.00632007129419        1.29586118575639       -1.61562863710638
H           -1.69983048685539        0.07711460238274       -1.70364773957422
H           -1.40973276797158        1.64311331799330       -0.88764586374854
