21
 energy: -31.458346743171 gnorm: 0.000844639607 xtb: 6.5.1 (579679a)
C            2.09828859056692       -1.21550486582982        0.85160750196235
C            1.54493349406330       -0.53306176090111       -0.44127226874668
C            0.06083284835194       -0.79620674377941       -0.61731021661096
C           -0.89777815165512        0.16624165137978       -0.43101102586792
C           -2.36402482561044       -0.22276296854413       -0.51520164670861
N           -2.98731814464700       -0.29802691967088        0.81749271551274
C           -0.58497180250961        1.52046275258559       -0.18996017100436
C            0.78313018088608        1.89155120829838       -0.22790014010444
C            1.73830582196263        0.95255551710468       -0.39785824050308
F            3.06957201779218        1.35428583784740       -0.51627792218523
H            1.57347731705818       -0.83356151150367        1.72767399462462
H            3.16491065111756       -1.01299239593612        0.96280376313182
H            1.94793112289365       -2.29450474068001        0.79783537279245
H            2.12271217120888       -0.96727277467827       -1.28246836610495
H           -0.21780014675483       -1.82077090667606       -0.85294728050550
H           -2.92724243721748        0.51312958707501       -1.10595890591610
H           -2.48602003492605       -1.20128566342069       -0.99777758244966
H           -2.50086525503456       -1.00083046242864        1.36196130036413
H           -2.84595610580927        0.58923579877296        1.28814449531156
H           -1.35773468697357        2.26957284865180       -0.06665265054204
H            1.06561837523648        2.93974551233359       -0.16492272645013
