33
 energy: -57.821754052851 gnorm: 0.000825061354 xtb: 6.5.1 (579679a)
C            3.90921155836073        2.49944454388702        0.07962640883663
O            2.99425340919882        1.38000704154531        0.00225820143382
C            1.68775712409700        1.67810479271849       -0.05501122562531
O            1.25707863496967        2.79405515184179       -0.05587245887611
C            0.82910948982872        0.43893550884002       -0.10808040712190
N           -0.49612027484832        0.69376643333823       -0.17392884700408
C           -1.32589214985350       -0.31389561155830       -0.24068367383654
C           -2.81696906300768       -0.08074039821741       -0.28126064762547
C           -3.13770266656616        1.05444166025562       -1.26334169892692
C           -3.25969023733305        0.28837622267181        1.14236718258541
N           -3.45116677733758       -1.33293563142357       -0.67148895742877
N           -0.90760059976745       -1.59127272096072       -0.23353800760347
C            0.41423733734622       -1.99599964431533       -0.17219962305038
O            0.73506855231289       -3.16739195073619       -0.17188531520224
C            1.29592178929502       -0.84791880093395       -0.10359246976412
O            2.69292898373098       -1.13004956166549       -0.10276497105797
C            3.22697730464093       -1.96758828566778        0.97798117027733
H            3.90539236144003        3.03216414880846       -0.87222454403140
H            4.88856655580606        2.07604749283492        0.28367938263055
H            3.59514936547220        3.16377888361623        0.88580239314939
H           -2.61624904901992        1.96248570637519       -0.96219023970873
H           -4.21007660163696        1.23875374711964       -1.26834014178282
H           -2.81996501390171        0.78007050731737       -2.26817664714650
H           -3.05459004762804       -0.53795158426629        1.82122222893625
H           -2.72139572441083        1.17195161751835        1.48269674432269
H           -4.32818503209349        0.49696981844921        1.14762306405494
H           -3.47952796054996       -1.40400477350992       -1.67948263135605
H           -4.40231747249059       -1.36171758816269       -0.33134613005633
H           -1.63747057014395       -2.30154793945809       -0.29940239874483
H            3.17427962821076       -0.24326630396255       -0.13021095804481
H            2.78686943396810       -2.95576295800985        0.86040982915388
H            2.96956521003946       -1.52384867571397        1.93826094024881
H            4.30255150186895       -1.99346084857656        0.82309444836514
