38
 energy: -79.621640867544 gnorm: 0.000675775151 xtb: 6.5.1 (579679a)
C            5.52531889597936        2.21814105298445       -0.51038401504186
O            4.37769470132531        1.42278322510617       -0.24896404455349
C            4.47597582931919        0.10711525006412       -0.61401711567874
O            5.49777832405727       -0.31109285212498       -1.13556839137416
C            3.27529391082001       -0.64956686275860       -0.30145702731528
N            2.25650431013127        0.07534995069939        0.28860040835210
C            1.15935705799798       -0.49431974850861        0.61936969687624
C            0.04746733810800        0.28579872382447        1.28879229991397
C            0.31874435022852        1.78782805291629        1.16548228687081
C           -0.05431019946150       -0.13626622798485        2.76193332990110
N           -1.20283408144773       -0.05181552840547        0.59000707775550
C           -2.40986121709992        0.43648265361218        0.92953576966462
O           -2.64742807514561        1.17158595079888        1.87300725825316
C           -3.45590462196552       -0.04816094528375       -0.01299255083984
N           -3.25697187347268       -0.80599875814639       -1.04894158798246
N           -4.47345700110499       -1.00325272061370       -1.63182664521948
C           -5.33635203582891       -0.35155663767309       -0.91412194144964
C           -6.79618823920827       -0.24677609698827       -1.12954565758453
O           -4.75577625336936        0.27289922516057        0.12173868934301
N            0.94562349738292       -1.84517620484404        0.41850867617362
C            1.86366439086813       -2.68277495735966       -0.16435792420055
O            1.59619548900835       -3.87285172518963       -0.30796733191482
C            3.16705754997829       -2.03809572353414       -0.58370942773820
O            4.03388762805327       -2.74601030250388       -1.12519084519573
H            5.29503050043783        3.22957209495382       -0.17814923385943
H            5.75854034836267        2.22489691549554       -1.58027012149119
H            6.39405556008996        1.83844773060291        0.03770422554961
H            0.34510811775887        2.07623826905021        0.11531268488054
H            1.28446829596927        2.01473791190985        1.61543064263809
H           -0.45690749115064        2.35559192325023        1.67511160316471
H            0.90350391483091        0.03469967342435        3.25158414966867
H           -0.82041702708318        0.44341285997901        3.27289893053814
H           -0.30518470846250       -1.19341092646044        2.83175074162734
H           -1.14428624179240       -0.60668290681142       -0.25196790716422
H           -7.33016271942485       -0.63675897328902       -0.26284060884543
H           -7.07930190183260        0.79814589029512       -1.25761630232577
H           -7.07683657964454       -0.81133584421309       -2.01572270240286
H            0.08091125678540       -2.26182341144023        0.72038491100625
