38
 energy: -79.627273095886 gnorm: 0.000754895771 xtb: 6.5.1 (579679a)
C           -6.54239088829994       -0.74406887074271        0.03843568365868
O           -5.27634658638022       -0.72837506136341       -0.60327307010408
C           -4.26014729995044       -0.17369580609709        0.10732458224295
O           -4.45910764922565        0.26744434823426        1.23426380839956
C           -2.97740643701013       -0.15319211177989       -0.57762062891757
N           -1.97903330879474        0.44009983938897        0.17653261437443
C           -0.79178065296521        0.54308208920109       -0.28646732032344
C            0.29860212795234        1.23298594993376        0.50729267285171
C            0.54016441816217        2.63254285256187       -0.06697147917322
C           -0.09182815847657        1.31412920164878        1.98536092468586
N            1.55249349196439        0.48115881298635        0.35779608603739
C            1.66406483128656       -0.82011667394088        0.68888146764292
O            0.74892975014197       -1.53154048650211        1.06973928365899
C            3.04600641365635       -1.34200333799259        0.51736042705688
N            3.46173412901042       -2.55399149753819        0.71702175300838
N            4.79375325118171       -2.56668864951620        0.42229773759694
C            5.10725567775406       -1.36236698450063        0.06102911507160
C            6.43168856091314       -0.85647209950785       -0.35931513321551
O            4.04724094238916       -0.53755211054138        0.09867277862554
N           -0.45102830320017        0.09029602016837       -1.54521829162649
C           -1.33234048255204       -0.52547656907942       -2.39428806098279
O           -0.95263288050562       -0.90336605434982       -3.50095819491504
C           -2.74541605030177       -0.68346824567425       -1.87398859440598
O           -3.58420714049210       -1.24771800331113       -2.60138536927948
H           -6.87789325496258        0.27411787245951        0.25907292839380
H           -6.49760262348990       -1.30892217254037        0.97500008565294
H           -7.24260684716485       -1.22127143084576       -0.64619959890628
H            0.82798106716220        2.56518660825216       -1.11465552102715
H            1.33356231493240        3.13339469667521        0.48434551046916
H           -0.37077899256091        3.22427401961470        0.01133664226288
H            0.69674182985912        1.80491709933712        2.55137664556877
H           -1.01405642107616        1.88631361766365        2.07973725241523
H           -0.25648495538958        0.31523032661337        2.38803744302439
H            2.38330299144688        0.99633510167554        0.12977768602324
H            7.16172032767386       -1.66085123774397       -0.31870445482421
H            6.74438667486562       -0.04448885364996        0.29632591572644
H            6.37484890524165       -0.46446855209685       -1.37463334804739
H            0.48861222722116        0.22858735290736       -1.87681297870361
