42
 energy: -82.982888313283 gnorm: 0.000221830562 xtb: 6.5.1 (579679a)
C            6.73186111985267        0.19017764409561        1.21384533763726
O            5.53872415571138        0.83737843163537        0.78867099060473
C            4.52929419757954        0.02283328498188        0.40522109081685
O            4.65619052236932       -1.19394362005193        0.43778553744013
C            3.32441398065367        0.71535668348262       -0.04252692256425
N            2.33353978234186       -0.15040701496860       -0.45199761894857
C            1.21534563994559        0.28921027784737       -0.89983139079453
C            0.15877023533777       -0.69585906511748       -1.36790518903561
C           -0.26412740872317       -0.43774786490927       -2.81683518290809
C            0.69413889355620       -2.12084740724049       -1.22270658140961
N           -1.01821976921127       -0.60140356695040       -0.46821118093317
C           -1.94147346002324        0.35696320871224       -0.49613052228972
O           -1.98366302379338        1.35133051257736       -1.20545765956309
C           -3.04085852239307        0.14030406512181        0.48980244557932
O           -3.14069682519705       -0.88320920819657        1.32918839203688
C           -4.29098149688684       -0.69704928660480        2.00340778727717
C           -4.72903207398815       -1.66231984545138        3.02566896847949
N           -4.89291183130793        0.38879546828344        1.61571204264210
N           -4.09887732046460        0.90735223006698        0.66136470241346
C           -4.47000791138903        2.12836981519631       -0.02297039104777
N            0.94422802304679        1.63643276592458       -0.98155846447460
C            1.82275850720391        2.61334985010512       -0.58275004687730
O            1.50229306720503        3.79448295332528       -0.66722123005111
C            3.15929672814178        2.12766449049583       -0.06282142732295
O            3.99461379533331        2.96933576836929        0.30571370172238
H            7.14555018135533       -0.42410153440068        0.40814347473303
H            6.53619092006458       -0.44944024747484        2.07981421761468
H            7.44035979618568        0.97246594394609        1.48394240864315
H            0.58152617172475       -0.64010461610405       -3.47311851127209
H           -0.58301232463731        0.59102094420270       -2.96476027187075
H           -1.08483455183112       -1.10114575108438       -3.08267065320511
H            1.56547665263682       -2.24708993769645       -1.86414034991541
H            0.99331615501364       -2.30864282581469       -0.19233753604843
H           -0.07047227840660       -2.83783650493655       -1.51325888120203
H           -1.14855121487307       -1.35722220388798        0.18447491795177
H           -3.96739880900603       -1.75082623240527        3.80123877983273
H           -4.85532984942804       -2.64490919039082        2.56955494789784
H           -5.66906927423782       -1.33501283884823        3.46323139344734
H           -5.44813641442143        2.43256700640096        0.33886259153533
H           -4.49198157094156        1.93423428520707       -1.09435890527465
H           -3.72178475619612        2.89239098845422        0.18625222161454
H            0.04353216209568        1.94283814410572       -1.31832403290630
