47
 energy: -80.192984921263 gnorm: 0.000364720036 xtb: 6.5.1 (579679a)
C           -4.73465439811762       -1.20685935062705        0.84794582441115
N           -3.34913161500420       -1.33504824844719        0.39955181551961
C           -2.54705973245860       -0.25134190353200        0.14199715283216
C           -3.05079700795902        1.18482328920396        0.25555740591031
C           -3.83367789929545        1.54520889969610       -1.01619041550030
C           -1.84581494321472        2.13254513629270        0.38305718382432
N           -3.91748883846950        1.34589689945220        1.42100031866544
N           -1.32391874237436       -0.38561534647356       -0.26192972911498
C           -0.77494070996840       -1.63126558210285       -0.42840995308036
C            0.61239375334353       -1.71440851939631       -0.88091731133665
O            1.19690226045320       -2.81028031310884       -1.03963518869030
N            1.20039564313605       -0.52934126949435       -1.14666716697224
C            2.60805782284722       -0.39019570691242       -1.41886774508317
C            3.46857179083979       -0.06601143891714       -0.11960342254229
C            3.25336986821865       -1.22498950570831        0.88307072488577
C            4.91259073215249       -0.00647079997487       -0.54765795267287
C            5.65139407665283        1.14373861136750       -0.51463474215266
C            5.09691552740173        2.32200152636623       -0.01548068792538
F            5.86709034703029        3.46310428299658        0.02015736217545
C            3.79751892857526        2.36280449013177        0.49279758913291
C            3.01809788455677        1.24100310487133        0.47889012354347
C           -1.51823154931415       -2.76888905354731       -0.15928504622450
O           -0.99746840758353       -4.00944671364395       -0.30724631231509
C           -2.87541712982930       -2.66223909512689        0.29633750501057
O           -3.61689337035501       -3.60875613304629        0.58225825531934
H           -5.25027763686087       -2.14765748072980        0.65049582652289
H           -4.76487586075806       -0.99589702573449        1.91703087129140
H           -5.23604855918068       -0.40569186117940        0.31495068612131
H           -4.73738669489896        0.94548035846113       -1.11013761339508
H           -4.11967729509466        2.59556380191914       -0.98414169444724
H           -3.20979468419179        1.37838639265470       -1.89389916087765
H           -1.23502456776568        1.85167201491361        1.24008325910516
H           -1.23004857286175        2.08926491605745       -0.51429765699939
H           -2.20144581258919        3.15206047756581        0.52104962783051
H           -3.35291469287491        1.36203226198001        2.26079505549341
H           -4.38787958922000        2.23714457594490        1.35900809702440
H            0.67483431637180        0.30392960428163       -0.91938075957661
H            2.97404995298109       -1.31962172507437       -1.86687510566911
H            2.75209999927913        0.42894144221090       -2.12794143375427
H            3.47167366296783       -2.18612957712098        0.41586583903474
H            2.22503028686269       -1.23318434668301        1.24477361217819
H            3.91841609802981       -1.08808054678719        1.73585489736427
H            5.35070802724380       -0.92777750479880       -0.91839224413178
H            6.68229274291114        1.14462200856055       -0.85544846729962
H            3.42074231269282        3.28860749003387        0.91588023471218
H            2.01307760602784        1.26979840789371        0.88791575889850
H           -0.05535433033769       -3.88342794468719       -0.61928421704036
