42
 energy: -83.652503572318 gnorm: 0.000268603321 xtb: 6.5.1 (579679a)
C            6.46366327512214       -0.77255918376517        2.03950524966339
O            5.54575021031710        0.11812881833720        1.42767269452786
C            4.31408118574205       -0.39843028892695        1.15581487050008
O            4.06647255433718       -1.57091223852237        1.42525248600420
C            3.37896236118309        0.53368193666312        0.55385093200452
N            2.13892713813437       -0.03742413220613        0.30856300691634
C            1.19102801131885        0.66185878271153       -0.20047039718537
C           -0.16172938267817        0.02150061487549       -0.51169431669908
C            0.06862003739885       -0.92084546269898       -1.70444825844592
C           -0.57745929403818       -0.80109813609393        0.72311633314873
N           -1.11173858050099        1.10585211374545       -0.78750866829049
C           -2.28119056985614        0.83600268741622       -1.75935697410783
C           -3.13944677099505        2.14541921575227       -1.65890283367737
O           -1.93551289546580        0.51851636832906       -2.96532989821106
C           -3.12721508050424       -0.27094775925687       -1.03573799620710
N           -3.25408071339505       -1.51652257161368       -1.37340120941140
N           -4.07966571791474       -2.10949133524965       -0.43721784448224
C           -4.39991440043792       -1.18254788704110        0.40030579063353
C           -5.26925836897305       -1.30542499727007        1.59561617780122
O           -3.83877966268099        0.00264069099667        0.08739404530201
N            1.36856186420351        1.98209195995956       -0.53808921846404
C            2.52988795028634        2.67275365803256       -0.35657398671473
O            2.59939218060985        3.86301753331926       -0.67409687984535
C            3.67436641363376        1.88555708989383        0.24128835628173
O            4.76845735512650        2.46319462178251        0.41599259238173
H            6.07913116677762       -1.12865850536374        3.00083874838103
H            6.65607203083751       -1.63858371218453        1.39767938733632
H            7.38990210532426       -0.22147513755316        2.19811316949724
H           -0.83069243456451       -1.48976915747527       -1.93660176760597
H            0.86891374785173       -1.61763415198498       -1.44827626885772
H            0.36247180775836       -0.35571306149627       -2.58837629626536
H            0.24479040256995       -1.45469395982554        1.01764322720081
H           -0.80846101782281       -0.13826664725596        1.55626793027578
H           -1.45206626546525       -1.41149406157385        0.50875435113888
H           -1.52593469885464        1.39295733633230        0.09454942471140
H           -2.55633717588039        2.97122525614150       -2.06230667427481
H           -4.03509121055374        2.01559908277031       -2.26412565855420
H           -3.42689316701041        2.36924064563788       -0.63393527714290
H           -6.08865921086111       -0.58969878979545        1.54113314511169
H           -4.69897278055696       -1.09698331432864        2.50076917564072
H           -5.67291748103660       -2.31348771536453        1.64977159522750
H            0.56256308151617        2.47915679415730       -0.90344026525325
