33
 energy: -57.872935745438 gnorm: 0.000602563134 xtb: 6.5.1 (579679a)
C            3.29919802071401        1.10734270163186       -2.28639966015909
O            2.96241420941799        0.22629168288021       -1.20880560949307
C            1.69437099298563        0.20604527659770       -0.82813333626383
O            0.83405163578118        0.88865775755331       -1.35224741517297
C            1.41878986561612       -0.72911326524115        0.29697149719003
C            2.32827010247352       -1.57066658486545        0.87735335166972
O            3.61197718056504       -1.66517966173142        0.51976474061574
C            1.91818484872019       -2.45834179834825        1.96583829329263
O            2.68626558135085       -3.23441089658447        2.51273341074588
N            0.59554403675200       -2.34249356855302        2.31324279747710
C           -0.26296882200070       -1.47803716953921        1.69641030589777
C           -1.67240148118987       -1.46037077000607        2.18102277872404
C           -2.51165936805682        1.58200142055218       -1.41348278365417
C           -1.84965962456656        1.36395191394139       -2.71422396054613
C           -1.70809605652062        1.85027749421594       -0.21105688192688
N           -3.79922307834636        1.50955329140000       -1.32618887331916
N            0.11235628626312       -0.70346988205693        0.73504370452236
H            2.74259666356838        0.82818331030871       -3.18342216880435
H            4.36946097472897        1.00050895451025       -2.45311951940524
H            3.05524894243961        2.13684137450074       -2.01585225622204
H            4.04626248282026       -2.33583261289905        1.08125592818942
H            0.25945913652589       -2.93407778129495        3.05676190535462
H           -2.10275996475824       -2.46060003304827        2.13656056098693
H           -1.71139565810908       -1.12059359802017        3.21609595322630
H           -2.25946023813831       -0.78638975610671        1.56262126315231
H           -1.29796851274842        2.26493459134857       -2.98981782042161
H           -1.10800547405755        0.56924267062545       -2.60930500079231
H           -2.56012473969071        1.11328564896983       -3.49851606683455
H           -2.31795261657742        2.17491898572252        0.62832875920838
H           -1.18860288347171        0.91956195401542        0.06062949255331
H           -0.92605034211384        2.57782744322195       -0.42630658498770
H           -4.37737967271821        1.29798274868437       -2.12228027709804
H           -4.28074342765369        1.66217015765365       -0.45556152769161
