42
 energy: -82.971295723909 gnorm: 0.000229339543 xtb: 6.5.1 (579679a)
C            5.58427395326317        2.13305613023091        1.24103408008560
O            4.35666022222360        1.41536229060706        1.04973793309995
C            4.28842668718924        0.61326433869805        0.00398369205950
O            5.16832735729795        0.44395297061149       -0.80020904083195
C            2.93988610286323       -0.06922484065562       -0.08309866846651
N            1.88638319794451        0.63864118037945        0.05288539379822
C            0.64510549082196        0.00375922309705       -0.09995446088548
C           -0.51482467504453        0.95278945298236       -0.23132963740364
C           -0.48475909947027        1.95490395439129        0.93258890410146
C           -0.38979046549227        1.67626910504289       -1.58271018160489
N           -1.73923092503203        0.16497605999740       -0.19282301433444
C           -2.97223047864371        0.70534953004151       -0.23981098381968
O           -3.21987721542502        1.89174155423105       -0.37045289519009
C           -4.01760570672093       -0.34145266401388       -0.10062071107549
N           -3.81501824458160       -1.61965552663646        0.01154009803911
N           -5.04004014329445       -2.20157184791426        0.14176194383068
C           -5.91224305226596       -1.24014323197229        0.10303927463491
C           -7.38313117463754       -1.34990936174687        0.21649523312878
O           -5.32855255382312       -0.04243872812324       -0.04968511670724
N            0.46515866211384       -1.26320167977125       -0.09392023083727
C            1.57107924641078       -2.11310753071777        0.03143164539795
O            1.49295186523972       -3.22870623225018        0.47502997915391
C            2.88739932072857       -1.52896722844911       -0.47082954420653
C            2.90575557182274       -1.57960131981254       -2.01990183061759
O            3.96747583938743       -2.24129859407557        0.05678392252865
H            6.40611363951920        1.42917000778065        1.38594692014312
H            5.78775837333580        2.75774655191486        0.36936882997084
H            5.44587896124870        2.74658548551097        2.12821816480293
H           -1.27138045748986        2.69532522280956        0.80287812116065
H           -0.63458613189328        1.43297557715567        1.87641075951211
H            0.48037898504529        2.45776755235981        0.94993816902089
H           -1.19311125915593        2.40354185099228       -1.68385812481160
H           -0.45305780142809        0.95574118135263       -2.39637573824980
H            0.56887456269325        2.18947748261813       -1.63051448073711
H           -1.63716334164195       -0.83815755876297       -0.09104568042186
H           -7.86085706271636       -0.86698434399833       -0.63530849730952
H           -7.67016996224923       -2.39781330595524        0.25361982179995
H           -7.72374704592105       -0.84853475673330        1.12267535180079
H            2.85815341385932       -2.62058500257593       -2.33165682950355
H            3.83683112908057       -1.13966227501762       -2.37169114348395
H            2.05962334850854       -1.03227292432199       -2.42797808752625
H            3.65888086632420       -3.09910774929994        0.39033265995993
