12
 energy: -30.096543001783 gnorm: 0.000775706849 xtb: 6.5.1 (579679a)
C           -2.22945302773201        0.29266708007728        0.13513490485808
C           -0.85932206512044       -0.25526273678642        0.07202053294588
N           -0.50326751150811       -1.48615695591738       -0.16433084807637
N            0.84663188629622       -1.51718420746270       -0.13397231428424
C            1.24737970389262       -0.30237348445513        0.11923892350482
C            2.63347064725784        0.15141998110011        0.25172821097512
O            3.58285143626564       -0.57023906830418        0.14812963916954
Cl           2.78983298977250        1.83868504293735        0.57948349440528
O            0.20097350003373        0.53795512349540        0.25873038528348
H           -2.34035569357263        0.91579475909508        1.02130888585219
H           -2.41855231690722        0.91567418277710       -0.73993909463903
H           -2.95018954867815       -0.52097971655650        0.15865328000524
