43
 energy: -83.118001517366 gnorm: 0.000653517384 xtb: 6.5.1 (579679a)
C           -5.58672188290196        0.02924797489256        3.18992603362437
O           -4.50100459491093       -0.12907282740789        2.27150217917568
C           -4.71577452505869        0.27937188271418        1.01978184131202
O           -5.76040357804096        0.76209355705251        0.65064340057953
C           -3.52133034233197        0.06546756378854        0.15049417679684
N           -2.41911980767658       -0.48516739934506        0.76058999753768
C           -1.34689547862548       -0.70613992318082        0.08224272875643
C           -0.15902954619734       -1.35327016787142        0.77671337618137
C            0.19200643960227       -2.69011372501663        0.11443470605139
C           -0.48744046145894       -1.56503443033964        2.25518521330309
N            1.00422754399014       -0.43931901379971        0.73249860100634
C            1.75695980737855       -0.19247783352324       -0.33943959099264
O            1.57587029551598       -0.58572390536668       -1.47946540886944
C            2.91740914421751        0.68554437343345       -0.00325378520262
N            3.22000100930020        1.24280904301473        1.10722166043553
N            4.37414195349378        1.95623568012397        0.94214759178420
C            4.77162132937457        1.83126479008428       -0.26664383960619
C            5.95960916519151        2.40077061151329       -0.92036676171503
O            3.87346592691175        1.01428025356391       -0.96398705042319
C            3.89230937043042        0.58937429285096       -2.36737034197782
N           -1.25372763575159       -0.42107679240980       -1.24838972037062
C           -2.27872945600342        0.14723321053985       -1.96383278761166
O           -2.18707446587152        0.42515131252565       -3.14962275011991
C           -3.49072896703568        0.38662425512431       -1.17981749936298
O           -4.51552063671250        0.92203363335057       -1.84641752536715
H           -5.25420215981036       -0.38929415340385        4.13755411088970
H           -6.46833660610942       -0.50521114899966        2.82688502765581
H           -5.82765921719777        1.08875522479445        3.30735395692978
H            0.39444576677114       -2.56790281918274       -0.94637114316897
H           -0.64626283271665       -3.37523890929512        0.23528473439433
H            1.07195073802067       -3.11349970974373        0.59507477996128
H           -1.34197383851332       -2.23416923539030        2.34411071812318
H           -0.73972653726436       -0.61583058208061        2.72554380398668
H            0.36643524750265       -2.00662957547130        2.76478793830987
H            1.30149236424242       -0.04455026451149        1.61283782352091
H            6.60625562683363        1.60546536089497       -1.29277414050219
H            6.50359525705863        2.99926371656529       -0.19162673576011
H            5.66869592386553        3.02783363296064       -1.76374804046480
H            4.79879801277476        0.99695194449304       -2.80310426532462
H            3.89257366726112       -0.49810905429230       -2.37489378940802
H            2.99815657948414        0.98995545822325       -2.83974688753695
H           -0.38569453691272       -0.59228239414338       -1.74200323173522
H           -4.25266106214088        1.06438709226609       -2.77402710480177
