43
 energy: -83.843300286770 gnorm: 0.000857416730 xtb: 6.5.1 (579679a)
C           -3.51197637857832       -2.17775831751620        0.18071493092365
O           -4.03524610316166       -0.88325158101637        0.46440825111623
C           -3.79890548682714        0.08869903301360       -0.50519676777466
O           -4.85307563020668        0.27241024436895       -1.40715305399868
C           -6.10222049965803        0.60011026413479       -0.80819934428898
C           -2.60574511952912        0.74760228916485       -0.60734435092103
N           -1.62200656630120        0.34252917244818        0.31589237549401
C           -0.46451868569457        0.89502269868411        0.28719534290472
C            0.59248115025034        0.46323529737128        1.29332881036706
C            0.88750727185906        1.62618165676977        2.25078187005161
C            0.11411093297107       -0.76978639797358        2.06541743913682
N            1.79987029818893        0.12930133660253        0.52433983578685
C            2.95078280131080       -0.30353871522104        1.07989820796928
O            3.18454578755344       -0.36974980196106        2.27912663699443
C            3.92780335861148       -0.69254989383722        0.03590552154670
N            3.73088760552093       -0.65744380669598       -1.25193938933155
N            4.87473433646088       -1.11564568109294       -1.83714326631511
C            5.69445773628190       -1.40254408371442       -0.87402533758785
C            7.06875073109582       -1.93926559845015       -0.99087986000638
O            5.15942265861567       -1.15878291317393        0.33323173246990
N           -0.11288691232852        1.86602715464361       -0.58974061909342
C           -1.01704220226816        2.38124231228984       -1.58140351332535
O           -0.57521748265976        3.28783943276454       -2.32629723368307
C           -2.26648300624349        1.77737064155667       -1.55101024466514
O           -3.22080433679545        2.23341229728771       -2.47564180021951
H           -3.83054179415599       -2.83754240649527        0.98975141399886
H           -3.89401701124267       -2.56329814591828       -0.77237320888886
H           -2.41532394650003       -2.15236886248945        0.14503535664370
H           -6.04821429151812        1.55990118647429       -0.27891211822383
H           -6.41289996967248       -0.17932208385892       -0.10223514926233
H           -6.83695460766049        0.66974054895864       -1.61128825410037
H            1.61306390888725        1.32534720527898        3.00420232394785
H           -0.03418948843355        1.92622609645533        2.74816225172390
H            1.28437492670192        2.47694878235058        1.69914945665466
H           -0.05745530036743       -1.59594659739654        1.37637907287070
H           -0.82284330976402       -0.53622513825691        2.56936117080064
H            0.85447935706175       -1.06740544732411        2.80544802544394
H            1.71593705606957        0.06821347681501       -0.48093285801587
H            7.78111015107117       -1.24580913790077       -0.54438538595597
H            7.14558683936997       -2.88834131368424       -0.46096787979191
H            7.31409951932628       -2.08704861975149       -2.03950624729315
H            0.80064224069622        2.28485290915146       -0.55912794300618
H           -3.95607953833572        1.60141150714753       -2.50376920110185
