21
 energy: -31.511887931448 gnorm: 0.000626846406 xtb: 6.5.1 (579679a)
C           -2.96828986664049        0.50283929380177        0.33409411707855
C           -1.50149675760051        0.23819623284340        0.16762443771902
F           -4.47284072686642       -0.82600647004514       -1.98014274296252
C           -0.90654304648854       -0.88412122821475        0.74252354135016
C            0.44472575600624       -1.14399490707312        0.56291327621220
C            1.23773352698997       -0.29169640684290       -0.20179857143910
C            2.71924814472527       -0.55228964860763       -0.37235073168023
N            3.51288364319941        0.19173320971337        0.61140040685614
C            0.64669405031221        0.83452239781182       -0.77204206334948
C           -0.70334895613458        1.09495031823379       -0.59067674934913
H           -3.52374361094667        0.05165536409973       -0.50465666071306
H           -3.34058117953813        0.06586336828638        1.26113482714394
H           -3.17279133297232        1.57417637264769        0.33955679016284
H           -1.50191593663545       -1.56240869438681        1.34608185245192
H            0.88718482290819       -2.02178506710153        1.02235821924659
H            3.04782243555908       -0.24812480959333       -1.37256535935151
H            2.93719998796879       -1.61870521794642       -0.24856294993844
H            3.22899836463778       -0.08389478483669        1.54247224517916
H            3.31778127273469        1.18031929642587        0.51582484658000
H            1.25001025328503        1.51634358987113       -1.36289899992155
H           -1.13873084469303        1.98242879091225       -1.04029073116803
