42
 energy: -83.011302931838 gnorm: 0.000830019107 xtb: 6.5.1 (579679a)
C            5.59651014528991       -1.42395881701519       -0.56146628074471
O            4.26020935100749       -0.93923966495776       -0.37409790035859
C            4.10771894351795        0.08787357308894        0.44561384558589
O            5.00672831987740        0.62657595461442        1.04036180287628
C            2.65565577610926        0.53247241314394        0.50289083384845
N            1.72450414674569       -0.46294961134785        0.12761243807340
C            0.52939982984639       -0.11790546417090       -0.14689653148140
C           -0.49124075647482       -1.17112315255281       -0.52995133839440
C           -0.12706471708247       -2.52360591919968        0.08859629418813
C           -0.53279311501487       -1.26353655212181       -2.05857106339084
N           -1.81100201152135       -0.73828530893948       -0.07238218005719
C           -2.05208330726225       -0.46904833321100        1.23173889885411
O           -1.19881871545859       -0.45215054544028        2.10168979498513
C           -3.47480857498094       -0.15264937864739        1.50148295801139
N           -4.01544227461870        0.17068798206811        2.63493369725055
N           -5.33869144689878        0.38408228813499        2.39241685661374
C           -5.52509455937218        0.17842792535044        1.12550338989782
C           -6.78780409596350        0.28820065178110        0.36409907961230
O           -4.38531678678154       -0.16505607757481        0.50375827382889
N            0.11090576930872        1.19191100520931       -0.25360093971156
C            0.96668190981664        2.26476262869882       -0.25714449451761
O            0.64466789827985        3.33783640109161       -0.72279125777143
C            2.32103916419788        1.98776964870471        0.32588352586986
C            3.35822396173921        3.06123158671945        0.09911077556584
O            2.30364672525708        1.34998404110112        1.57711559691031
H            6.20591545405911       -0.65000225427337       -1.03297027514328
H            5.52048754112368       -2.29474831858370       -1.20891072524414
H            6.03418263200455       -1.69794006540363        0.40104612489398
H           -0.08516007407397       -2.44419609069889        1.17425347500643
H            0.84865551121640       -2.83540390977083       -0.28030969319660
H           -0.87104068838942       -3.26648963557269       -0.19019450089384
H           -1.26566492009399       -2.00784280051976       -2.36310372131476
H           -0.80553157705227       -0.30135325224860       -2.48798664194329
H            0.44592163980450       -1.55608661892727       -2.43553806874591
H           -2.58328893676681       -0.81692333302688       -0.71048396855953
H           -7.60245939494608        0.54275033617500        1.03818269628677
H           -7.00403406588807       -0.65586982324920       -0.13544003462127
H           -6.69221487453934        1.05809632340065       -0.40166124983702
H           -0.80411973303823        1.35689104181106       -0.64564167469301
H            4.23602515267369        2.87535116676535        0.71311974439511
H            3.64443943460424        3.08214597214322       -0.95074104623684
H            2.93215031971684        4.02931398746011        0.36201648431931
