9
 energy: -15.745795071975 gnorm: 0.000515547847 xtb: 6.5.1 (579679a)
C           -1.07693710334274       -0.27703448971318        0.23455592012753
B            0.46323164928911       -0.00392938915697        0.03480817631128
O            1.00609071822863        1.25318716131102       -0.07513757872608
O            1.31635918447865       -1.06877160513093       -0.05200193445053
H           -1.52578036024885       -0.57924653033144       -0.71219036916951
H           -1.60926256532245        0.60355375928347        0.58630938142989
H           -1.24102944578268       -1.08796434149037        0.94333924565164
H            0.42951438475087        2.01105227248809       -0.01968791070968
H            2.23781253794946       -0.85084783725968       -0.18891393046457
