46
 energy: -87.023272635914 gnorm: 0.000608290490 xtb: 6.5.1 (579679a)
C            4.76237396711694        2.17621078664861        2.55879083166624
O            3.89446298426726        1.33157993815740        1.81106683976935
C            4.48386167676272        0.59616560393585        0.83652714649581
O            5.68171716143401        0.66979112842618        0.61549441018044
C            3.52715483618200       -0.25543947098777        0.12267386115921
N            2.22020643552457       -0.19238213332312        0.52841296633493
C            1.29131449141223       -0.90094883707905       -0.02919994017398
C           -0.10945882688656       -0.75388758393631        0.54679038579602
C           -0.53338866604032       -2.05481524916528        1.24262475027659
C           -0.11215016366899        0.39105479562603        1.57560393293194
N           -1.03889364067278       -0.43552433647814       -0.56565716596308
C           -2.37506272721347       -0.09672115134667       -0.16201238587722
O           -3.22759443685971       -1.14420981665496        0.15334790996983
C           -3.93832950384303       -1.71726040528737       -0.94300815748970
C           -2.79430747004892        1.19316120185283       -0.37890614411822
N           -1.98315019428666        2.21959263856329       -0.70506282458826
N           -2.79372281882870        3.32995297404841       -0.78646505558347
C           -3.99559282459451        2.95930023568887       -0.51477838494683
C           -5.21578679499470        3.80610535838674       -0.47939908487308
O           -4.09623411542974        1.62230733804946       -0.24063937406973
N            1.56459223870919       -1.75004065240209       -1.08114009494920
C            0.58290278156376       -2.58507989684345       -1.77188859539116
C            2.86713811662914       -1.91261497795315       -1.54873091883059
O            3.12735201943678       -2.70281207340279       -2.46764608764689
C            3.86968360090858       -1.11173396720788       -0.91097001266289
O            5.13417385759500       -1.25829220089642       -1.37647864183531
H            5.52969789154063        1.58370660290079        3.06625899490881
H            5.25092726758491        2.90348102223710        1.90277671384312
H            4.14648672739991        2.69282976185608        3.29367507615189
H            0.21999545639045       -2.34164450988181        1.97600473553915
H           -1.48316187031620       -1.90852682261154        1.75524756325236
H           -0.65365395794003       -2.86551938443761        0.52776753040504
H            0.60511862408117        0.18630451410409        2.36884372943334
H           -1.10621920314334        0.48577888256580        2.01132594795475
H            0.15299715598202        1.33172891661233        1.09236706348564
H           -0.66250497661086        0.37685539278081       -1.06030708593780
H           -4.52824875998640       -2.54489242981482       -0.54597597771187
H           -4.60824806872178       -0.98101459039815       -1.40366459256606
H           -3.24665530535749       -2.09793206153480       -1.70434776820909
H           -5.69511640873502        3.74663008900636        0.49843780104869
H           -4.94407737980452        4.83952554642017       -0.68415304667715
H           -5.93528532393420        3.47107722665275       -1.22768564027099
H            0.67418988025656       -3.61634616313211       -1.42641053550378
H           -0.42384257849248       -2.21578978499563       -1.59950151211233
H            0.80038700359614       -2.55392675898660       -2.84030299305533
H            5.11395184205279       -1.91578469576223       -2.09394716955874
