42
 energy: -82.973763024131 gnorm: 0.000388631019 xtb: 6.5.1 (579679a)
C           -6.16335826215425       -0.38906323101218       -0.74791326468731
O           -4.80150277866483        0.03853674242302       -0.60339347745664
C           -4.05811989210934       -0.61051942474750        0.27342723860394
O           -4.43416790553734       -1.52970078594227        0.95367504453430
C           -2.64230047716201       -0.07419401011300        0.31819218858645
N           -1.69423867064137       -0.92359037648126        0.41297683695519
C           -0.37904966418849       -0.43220433132361        0.41234538188582
C            0.66463523921444       -1.47592408789090        0.12583079696593
C            0.59915459642483       -2.54655824409154        1.22719172431794
C            0.38054829541141       -2.08972096380129       -1.25390923287641
N            1.96380041047670       -0.81582714197447        0.13050804857759
C            3.12517134462658       -1.46346136884031       -0.07808095265500
O            3.23708642449447       -2.66095203331364       -0.28796258578259
C            4.30324456528455       -0.56051808432478       -0.02090564679841
N            5.55502978267182       -0.88381336526737       -0.12274951019284
N            6.27081657213297        0.26935706817496        0.00068778942812
C            5.41200926003632        1.22599466993071        0.17031729613516
C            5.68473690014832        2.66903078052319        0.34515338172743
O            4.14903989950225        0.76839270684098        0.16821761111592
N           -0.05738423406438        0.77608373737825        0.67922273342889
C           -1.07199622376753        1.71019010681320        0.92155861422627
O           -0.92694470283788        2.68139940736040        1.61518061829521
C           -2.37746062310141        1.41198649435580        0.19047826361031
C           -2.19253185453810        1.72329446833737       -1.31520959873603
O           -3.41930829136396        2.17010375612519        0.73027555559479
H           -6.64166610299855        0.32575028182644       -1.41323992821614
H           -6.19097572285801       -1.39092949601366       -1.18075615456670
H           -6.65549457303000       -0.39737401254997        0.22665764775789
H            1.29869286342250       -3.34914888257590        1.00186596091316
H           -0.41010692594546       -2.95205544004727        1.27353993877188
H            0.85494762996858       -2.10610343613296        2.18943100538799
H            0.49044457794245       -1.33003135214059       -2.02561356378406
H           -0.63689747203280       -2.47636350424594       -1.27413628969216
H            1.07845521600934       -2.90214657788414       -1.44755271082005
H            1.96504331457829        0.18304140666343        0.28707268995196
H            5.27452978718218        3.22815299936550       -0.49581346819560
H            6.75758932774512        2.83524474084302        0.40167890437385
H            5.20708143120120        3.03158918564865        1.25460489333044
H           -1.96417381186190        2.78083332688527       -1.42530680023561
H           -3.11982044878514        1.49954290138734       -1.83764616695823
H           -1.38267445981256        1.12699521384449       -1.72835542996359
H           -3.05188534101049        2.90467815598512        1.24842561715583
