20
 energy: -38.355212345440 gnorm: 0.000562537387 xtb: 6.5.1 (579679a)
C            4.11238935944757        0.38907713786910       -0.08044542212778
O            2.80686905459005        0.11921512697759       -0.55874842927550
C            1.78903322653376        0.32905954260151        0.37126630011574
O            2.06185747895073        0.72016796662181        1.51449188096596
C            0.52498830794713        0.04383700264023       -0.17125242480567
N            0.25976687016613       -0.38071649595010       -1.40593666076652
N           -1.00877950758281       -0.55414619833854       -1.57870811966555
C           -1.68677446755113       -0.20977542628172       -0.31597407764116
C           -2.66173545732675        0.95441590671049       -0.55385377315624
C           -2.42810901347796       -1.44316136038498        0.22473089429921
O           -0.65826054974213        0.18035575966485        0.58023890273911
H            4.35562156296460       -0.24260162142125        0.78182295403855
H            4.21437866942384        1.43937523939216        0.21660133140675
H            4.80474178660851        0.17330251701553       -0.89482233297774
H           -3.15297060549191        1.23123356444581        0.37728290923123
H           -3.41273030102424        0.65991548900636       -1.28400126377294
H           -2.11295642735508        1.81385728697851       -0.93554489041066
H           -3.18039709126159       -1.76315763346954       -0.49319267346393
H           -2.91029306341896       -1.20748731133313        1.17178814619644
H           -1.71664183239969       -2.25276449274477        0.37973774907042
