46
 energy: -87.004756672144 gnorm: 0.000488802802 xtb: 6.5.1 (579679a)
C            6.49379182066578        2.47923234675994        0.02117066078187
O            5.54565053747461        1.53420537479106        0.50524269410853
C            4.43306110729183        1.35952595362001       -0.29452475933590
O            4.31883147733278        1.99610597261098       -1.34129782757450
C            3.48746346461352        0.39586190185556        0.21306007259210
N            2.38726677252992        0.21394276848982       -0.59998292831252
C            1.44206612023850       -0.61180401005322       -0.30302743774585
C            0.31920441631172       -0.74569578647744       -1.33548242652722
C            0.47658093389117       -2.10007775509323       -2.04903667541505
C            0.45755133731528        0.39069695038365       -2.36580366607199
N           -0.96811814234416       -0.65183043194698       -0.64226968319903
C           -2.18039074725119       -0.64115174563180       -1.39970788282568
O           -2.24386040350523       -1.08297192752416       -2.57818762028259
C           -3.27340461001578       -0.16735036967711       -0.67737004035238
N           -4.58762403715586       -0.06179702935584       -1.08292702366120
N           -5.21013180120938        0.45140872111503       -0.02519549393214
C           -6.63155174705355        0.69769989067560       -0.09250830770591
C           -4.41132773469014        0.67980922519792        0.99365971344676
C           -4.75720725662049        1.22645122024750        2.32606094953582
O           -3.15170587982393        0.31173442001315        0.66766501845432
N            1.48048340397452       -1.37024562847261        0.84576056213044
C            0.47203346599340       -2.34072482119867        1.26407758786891
C            2.56733907589540       -1.28396270981098        1.75127449932448
O            2.55813947259816       -2.00989985239542        2.76114598632735
C            3.58228937749015       -0.35204385910079        1.39847549169507
O            4.62603553373537       -0.26329103498668        2.28146978122704
H            6.85109352403711        2.19247433803658       -0.97310922119202
H            7.32570544478433        2.48729970690404        0.72344755344934
H            6.04800929466694        3.47748138764072       -0.03571104705628
H           -0.20076478075865       -2.16186499304691       -2.89927407973394
H            1.50102039172515       -2.20009740722668       -2.40844626107796
H            0.26103629853342       -2.92703254784790       -1.37504066849590
H            1.42340657748122        0.32581567887077       -2.86565864966810
H           -0.33201286896376        0.31359783535986       -3.11164253753983
H            0.38666346426805        1.35728787657211       -1.86821267543226
H           -0.96553494001434        0.07943721337577        0.05882116136880
H           -6.82603686220738        1.76027627377007        0.04533234910719
H           -6.98160876468290        0.37821139378239       -1.07113615601555
H           -7.13777743249982        0.13341761240930        0.68896412183276
H           -5.26107248196228        0.47506342326620        2.93792579984585
H           -5.42525167756607        2.08141615661650        2.22725992019420
H           -3.84653638221949        1.53598323788486        2.83500795163640
H            0.90480489293644       -3.34386433238122        1.24581171811820
H            0.16963313621039       -2.11284376593583        2.28847025933718
H           -0.40074439986609       -2.30256678041777        0.62034077610158
H            5.27350060841596        0.39667690833654        1.98545644067450
