42
 energy: -82.983806033829 gnorm: 0.000526806840 xtb: 6.5.1 (579679a)
C            4.30711829451274       -0.15525909193632        3.47117511963601
O            3.97874790597154        0.07149346360381        2.09390037744971
C            2.73540173104592        0.42186269040095        1.82513977642245
O            1.86407930601658        0.55518554995498        2.64635987011937
C            2.50471405166505        0.62612117738114        0.33968844378639
C            3.63575438293489        0.91823264675510       -0.58800075424500
O            4.67884644724819        1.41132183507796       -0.24435254131153
C            3.33339678017327        0.58096209610797       -2.05035110596125
O            4.20087461049907        0.38292979664840       -2.87577363574638
N            2.01594152414222        0.50493712805911       -2.33194159540730
C            0.92191021481325        0.76980186859355       -1.41812687328096
C            0.49514712797627        2.24133880436185       -1.54585371688807
C           -0.24868055622231       -0.22443446814535       -1.70794128879855
C            0.27058785235257       -1.66390539385200       -1.61127620543315
C           -0.89806203249805        0.03648418373491       -3.06780629757367
N           -1.22087309743630        0.00690682926556       -0.64024103866083
C           -2.39798835187478       -0.64974691272653       -0.54357379655095
O           -2.87490437482080       -1.38900980661538       -1.38511202981894
C           -3.06614742386095       -0.33330080832820        0.74542764922170
N           -2.58348281235509        0.40860560983359        1.69617011560249
N           -3.51055296742193        0.42028651273141        2.69441122619507
C           -4.49954188726366       -0.31759380606204        2.28919630678706
C           -5.75185461209586       -0.62593442517135        3.01405932547693
O           -4.27758748703609       -0.82270124645440        1.06685287036017
N            1.29234906946879        0.57301584218947       -0.05048925034014
H            4.09994516829535        0.74380858362925        4.05493982461227
H            5.36759484560972       -0.39489927009824        3.50002411497503
H            3.71618147409588       -0.98678166490552        3.86014771166798
H            1.78183072059390        0.39677153307250       -3.30693061014727
H           -0.40112727444616        2.42112635393752       -0.95667553641438
H            0.29915585745019        2.47614851411913       -2.58865414871090
H            1.29976343621979        2.87795977055434       -1.18246095468262
H            1.02869596749556       -1.83680241849986       -2.37208288157584
H           -0.55141804221102       -2.36048846889052       -1.76742729258432
H            0.70409358825633       -1.83729430888928       -0.62714213770571
H           -1.62376747950554       -0.74610657282095       -3.28304147313629
H           -0.14640707389645        0.03156297332817       -3.85425944710830
H           -1.41189531139318        0.99568577457878       -3.07135775418583
H           -0.87101301993765        0.46072447075133        0.19615279048778
H           -6.61126575783333       -0.42308956309371        2.37621544704302
H           -5.81092218994111       -0.02101023316850        3.91550113984983
H           -5.77464260478952       -1.68178854901138        3.28551025657252
