20
 energy: -37.626372957427 gnorm: 0.000451113833 xtb: 6.5.1 (579679a)
C           -2.95204366060726        1.75676323866734       -0.03955043484070
O           -2.90414733246254        0.33327484769698       -0.28420734485977
C           -1.81592565705846       -0.31342474985451       -0.26461011618272
C           -1.83214038200881       -1.75810337066332       -0.53213426084879
O           -0.72715528028593        0.35454784167234       -0.00645051266316
C            0.52479408558630       -0.16372528752792        0.04601695854951
N            0.91223625813384       -1.37725335592261       -0.15011474721498
N            2.26600701361219       -1.35389843978931        0.02273690086665
C            2.59675079056170       -0.13318785163257        0.30978145602050
C            3.94069714758419        0.41063263985443        0.58609199237957
O            1.51406676996832        0.67799902134764        0.33839919156443
H           -2.29646949900745        2.26250751055227       -0.74798154435861
H           -3.99098902082845        2.04383535981134       -0.18198706144932
H           -2.62235447721470        1.95201758491097        0.98066156212405
H           -1.39162085325049       -2.28646223911301        0.31658397152767
H           -2.84919376158760       -2.09691475175739       -0.71555581443136
H           -1.19112344722134       -1.96932641987535       -1.39127081021250
H            4.17605982541898        1.19660992711828       -0.13186202240715
H            4.67819076055994       -0.38556784693665        0.51624226773399
H            3.96436272010761        0.84967634144177        1.58382936870299
