43
 energy: -83.126200659053 gnorm: 0.000676131715 xtb: 6.5.1 (579679a)
C           -5.79981220116857        1.51015209674422       -2.35801683632676
O           -4.65253358628669        1.00996104185559       -1.65733824727271
C           -4.67200310452516        1.09862152468864       -0.34111291808858
O           -5.59411902157728        1.58222953964765        0.29072800467364
C           -3.45984824745890        0.54804651596525        0.31913562747120
N           -2.47498976338626        0.04815942992962       -0.48215759525043
C           -1.41352534802289       -0.44664272911240        0.06636202513658
C           -0.33807395254693       -1.05729577677653       -0.80265291335575
C           -0.46484679413448       -2.58289524822421       -0.77046239379336
C           -0.43766283507029       -0.51729380388586       -2.23256420361949
N            0.97423643652650       -0.70584301155965       -0.24671820604022
C            1.29334953984774        0.56742419029658        0.03666246237625
O            0.55235107396617        1.52468975135585       -0.02066524405927
C            2.72714630583181        0.71148134647319        0.46562159391537
N            3.31197281557146        1.89018563169297        0.83278591051845
N            4.52703290261961        1.65332475776460        1.09049051299308
C            4.81368877417979        0.27335904131081        0.89278295753555
C            5.25793431373593       -0.39086344886975        2.20118538244494
C            5.83675348530674        0.08713854610542       -0.23544353846877
O            3.55371658699697       -0.26529881077225        0.48370031184392
N           -1.24477133589782       -0.50033139042638        1.41315145038190
C           -2.15247658343431       -0.00342304544796        2.33729360116289
O           -1.92840627402072       -0.05926985540402        3.52891941573107
C           -3.35193581424775        0.55744042337044        1.69608937236015
O           -4.27629027538020        1.04642038017486        2.50678999232089
H           -5.57146089340713        1.43044714384136       -3.41870361662081
H           -5.98159282814821        2.55070680790195       -2.08053428451026
H           -6.67574151426764        0.90761165258953       -2.10840170271052
H           -1.43919312394999       -2.87649491306199       -1.15812865185697
H            0.31166960622586       -3.02990551321634       -1.38771438458393
H           -0.36274625357387       -2.94644847170447        0.25019622639798
H           -1.39868128518557       -0.80611638100304       -2.65489923779907
H           -0.36467259155461        0.56926987702936       -2.22794630073502
H            0.36589750569074       -0.93168353357836       -2.83668557600452
H            1.68195335803233       -1.41897867298493       -0.20591565815410
H            4.49691701711578       -0.23068325887010        2.96170256954329
H            6.19980378833710        0.05095333723468        2.51753672563087
H            5.38555404011333       -1.45594083499392        2.02534508208235
H            5.46384257331387        0.56379258517347       -1.13951253965913
H            5.97358130751621       -0.97732668560737       -0.40956109006667
H            6.77770933630330        0.54146769382393        0.06521553756599
H           -0.40450042164113       -0.91236089523307        1.78685935597077
H           -5.04522371836243        1.39221296574435        1.98782802093300
