43
 energy: -83.846024136257 gnorm: 0.000401477006 xtb: 6.5.1 (579679a)
C           -4.89454089856713        2.24729053814039       -1.56990615850014
O           -4.75386444913953        1.31965314580165       -0.49939402544700
C           -3.66900798445419        0.45638075529317       -0.58672803465380
O           -3.90891199940759       -0.69045230499497       -1.35185943259571
C           -4.33571586830376       -1.83472881353023       -0.62268509733885
C           -2.47049050974426        0.66285107340141        0.04045612516375
N           -1.53780643991197       -0.39004559650780       -0.04898041546693
C           -0.40420459461078       -0.29149194520400        0.54414448191943
C            0.56783133992672       -1.46030607179121        0.47365603342499
C            0.16259309086882       -2.41716818699346       -0.65182810022526
C            0.56979234028708       -2.17758055732004        1.83195938330687
N            1.90316856134146       -0.91144781342995        0.20033120758954
C            3.01726057348179       -1.66245058211539        0.11065228245014
O            3.07258457110757       -2.87749312162954        0.25894715732116
C            4.22709387604077       -0.86153131736522       -0.19402525357062
N            5.44302882266879       -1.29275767282341       -0.36061703982527
N            6.21682564590890       -0.19852564158889       -0.61864173660056
C            5.42975511281377        0.83066222916591       -0.59379193567837
C            5.78726367493257        2.24989017660420       -0.81132330004467
O            4.15743769218322        0.48377439161617       -0.33281580982931
N           -0.02293213146252        0.78044174311806        1.28621180785517
C           -0.85226520487867        1.93810120819382        1.41016936745455
O           -0.41854380850364        2.91797609755730        2.06702522794245
C           -2.07263842717828        1.82882004372611        0.76910405320287
O           -2.93011796997478        2.93941736754307        0.82318831912437
H           -4.03758451035903        2.93118055745511       -1.61047123981415
H           -5.80361862637495        2.82177503450648       -1.38157308658682
H           -4.98809308770259        1.73135184413039       -2.53359652787601
H           -3.54642988767998       -2.17833803901986        0.05886375172273
H           -5.24307780041062       -1.62518844942704       -0.04231246821275
H           -4.54840127752988       -2.62145189260777       -1.34914926679625
H            0.19840557961407       -1.89953511238190       -1.60979040960894
H           -0.85579733216398       -2.76253630846690       -0.47814075029310
H            0.83056464931680       -3.27574663936777       -0.68167558205346
H            1.21511834769256       -3.05351050838635        1.80254347298423
H            0.92398455559919       -1.50188140940531        2.60853248464315
H           -0.44444132058287       -2.49364753602708        2.07264030768383
H            1.97945123657466        0.07700947717825        0.02080257690981
H            6.85621525985968        2.33365562132005       -0.99022910789004
H            5.51547302228001        2.84053206477784        0.06336126617902
H            5.24205201725351        2.64578137642361       -1.66804146714439
H            0.87370764312192        0.81607685091213        1.73680869284437
H           -2.45112048392317        3.62519392351130        1.31328024632242
