46
 energy: -86.350410719198 gnorm: 0.000846950602 xtb: 6.5.1 (579679a)
C           -3.54081575322695       -2.57350244894747       -2.72472326204311
O           -2.70593764624068       -2.00318084302347       -1.70352270595253
C           -3.30807638546587       -1.29978204338840       -0.76996509354166
O           -4.49876179723108       -1.11253904488762       -0.70565894265010
C           -2.34060308035474       -0.69740807450848        0.22701830800809
C           -2.91723480146455       -0.14995654551818        1.51630880540648
O           -3.94300989633028       -0.96354181652917        2.00936879145018
C           -1.81746826038937       -0.10073266454121        2.58502893656373
C           -3.43054129783584        1.28342935322561        1.26804526128328
O           -2.04760033736742       -0.19081986450670        3.76926307653003
N           -0.54931827244129        0.13583418954098        2.12034860992072
C            0.51384009924589        0.11291866163579        3.13769190653743
C           -0.15074836979239        0.00571878983128        0.73976878767898
C            0.35341322129933        1.34306313341798        0.06363572355292
C            0.29932173935304        2.56860276245584        0.96996414088421
C           -0.32859500821719        1.60921849220384       -1.27808625662419
N            1.75436401457017        0.99189664247255       -0.19540186248043
C            2.02826926329657       -0.22912072535598        0.16989156047145
O            1.01763865381988       -0.85805612907313        0.70834791903407
C            3.30260391384968       -0.85417183996005        0.02428567779729
N            3.67015342544877       -2.06471354959896        0.35223661219596
N            4.96181603701003       -2.17841037365891        0.02018669273966
C            5.33339257522788       -1.03361277436907       -0.49784472232416
C            6.66280129234914       -0.66221564216399       -1.01273322836662
O            4.32365559188564       -0.16052691437592       -0.52080029811754
N           -1.11891502567332       -0.62609402936487       -0.10462220742041
H           -4.12359930841153       -1.78475655753135       -3.20391160119867
H           -4.21446215809002       -3.30963896335739       -2.28142149373320
H           -2.87068426820240       -3.04581629885230       -3.43965322368140
H           -4.70562708230524       -0.94532926743570        1.40983055578729
H           -4.23413475453279        1.25231284600863        0.53493587316307
H           -2.63059317979054        1.91640242676220        0.89572061785949
H           -3.80944219451942        1.68809603289380        2.20494481234346
H            1.40701511956332        0.58058661092250        2.73861946211129
H            0.15961341637810        0.67109378934564        4.00298465146385
H            0.73302833083688       -0.91685720484325        3.42496434569868
H            0.98909305815814        2.46722469569741        1.80389931758192
H           -0.70990904160578        2.69772901361589        1.35561204025644
H            0.57336521458881        3.45254879030160        0.39737772054152
H           -1.37882208020034        1.84454101523079       -1.11709929086943
H            0.15188851330170        2.45567943271097       -1.76395792183346
H           -0.25016353237532        0.73494250518301       -1.92188129940582
H            2.41712845560489        1.62339189660085       -0.61370949253156
H            7.35392958596670       -1.49337470626616       -0.89373082618938
H            6.58539635446769       -0.39138376915906       -2.06620998529968
H            7.03333365583879        0.21030901117296       -0.47396149259812
