33
 energy: -57.873708562992 gnorm: 0.000209968531 xtb: 6.5.1 (579679a)
C           -0.98315728661581       -0.89825945106408       -2.20343644260425
N           -1.64330654576082        0.12210035065684       -1.34955277971004
C           -1.89343321833936       -0.24154208492180        0.09124643847584
C           -2.52400927708117       -1.62989408926124        0.18920241219152
C           -2.83342825610119        0.83335406897657        0.64500380134217
C           -0.55435649081652       -0.17875165069035        0.78634802768783
N            0.49264098436097        0.13652293210451        0.10776967965723
C            1.72195336014759        0.20015786797322        0.72643912179802
C            2.88066639678015        0.48955130050929       -0.17012542059156
O            4.00163637812244        0.73059997675880        0.20493110764645
O            2.52922053183422        0.42904057287938       -1.45578262925672
C            3.56681400158002        0.66724158341681       -2.41566326491097
C            1.83325158886155       -0.02884238541853        2.07068337514744
O            2.98390983833383        0.01739109637568        2.73902610050141
C            0.64773007882620       -0.37190565661780        2.86001753760643
O            0.67761780095309       -0.59118191826664        4.05671842279799
N           -0.51694491569781       -0.44035962740755        2.12159429280318
H           -0.84238569593567       -0.44663349131483       -3.18252806516254
H           -0.02254866851581       -1.14971248448134       -1.76040768786812
H           -1.62363749319868       -1.77071095317670       -2.28223243945052
H           -1.04275170751397        0.94918332264304       -1.34540935415552
H           -2.52919894301162        0.37420627907844       -1.77795198716727
H           -3.38324888246504       -1.69627898229679       -0.47557018938153
H           -1.80540854049480       -2.40685600532443       -0.06488282144509
H           -2.86326310534768       -1.79226218463426        1.21076723629989
H           -2.39353059221645        1.82171193043604        0.52197697631951
H           -3.00774664502417        0.65453829123421        1.70434277001422
H           -3.78824949213893        0.79631201697118        0.12390474385847
H            3.12833707819075        0.48131717474494       -3.39347360599265
H            4.40528561898062       -0.01114005843635       -2.23822552903351
H            3.91123095884634        1.70173579270782       -2.34403182572775
H            2.82762663927060       -0.19381608999840        3.67761375311307
H           -1.35731249881222       -0.68613444415647        2.62168724519710
