42
 energy: -82.954602922825 gnorm: 0.000210581495 xtb: 6.5.1 (579679a)
C           -5.94407630967644       -0.97590443515259        0.96877822140608
O           -4.99270691321604       -0.03992744024110        0.42660893903627
C           -3.73779991016455       -0.39863600489863        0.38062994121174
O           -3.26474117935664       -1.42573884273611        0.76225906048569
C           -2.85951798315175        0.76379402530808       -0.26805961924315
C           -3.68772670522617        1.50000663185353       -1.32697776742796
N           -1.73679308044595        0.11674360680158       -0.85477868428987
C           -0.60796100620295        0.08607402534367       -0.21811644780474
C            0.49660132240944       -0.73832528498064       -0.86178530622421
C            0.49212377398181       -0.53912927134211       -2.38107835507523
C            0.24319821428663       -2.21065082033553       -0.49746289606222
N            1.76969181949121       -0.29724843403237       -0.29922178733198
C            2.96164155762104       -0.81789820786098       -0.63121511221977
O            3.15136966121519       -1.70912240412573       -1.44389772671697
C            4.06126147870149       -0.15547850450368        0.12300252993340
N            3.92855162005939        0.77683672338489        1.01750572834410
N            5.18444477096009        1.09597743371239        1.44241857223043
C            6.00251483885020        0.33743422826489        0.77903998851931
C            7.47892627118875        0.30372527563001        0.87074695210781
O            5.35467197523158       -0.47546964107337       -0.06884504752560
N           -0.29618602405013        0.66334978415586        0.96773139340460
C           -1.19912034298785        1.42534829184825        1.58498154636118
O           -1.06752962499284        2.06863115196193        2.62999658967617
C           -2.52740778616105        1.54710036586245        0.91755725237302
O           -3.36935294427087        2.32082717656352        1.50079282486543
H           -5.52625868520250       -1.45831724822293        1.85367035517262
H           -6.82772661479313       -0.39545096088129        1.22291032774054
H           -6.18302410886707       -1.72411115640698        0.21188782184525
H           -4.05422275841827        0.78677848897733       -2.06105704534423
H           -4.52493664692823        2.01125754558461       -0.85891925845254
H           -3.04868240314514        2.22745427547707       -1.82288418212740
H           -0.49272729350054       -0.78996318207874       -2.77105701722803
H            1.23610120294490       -1.18026678147834       -2.85020776208322
H            0.71194902692189        0.50027246630794       -2.62035579406366
H            0.98201787046702       -2.84982360933316       -0.97786959291111
H            0.30289299872746       -2.34117139146526        0.58232929992702
H           -0.75230439647066       -2.49468401608524       -0.83515985661456
H            1.72308814494223        0.41624835781319        0.42081827647695
H            7.91701383943562        0.55313330442214       -0.09557922159036
H            7.81517178935034        1.01858704638396        1.61760634167142
H            7.81396130078738       -0.69647470236046        1.14444310958097
H           -2.92639276035342        2.68076013393877        2.31881440796279
