42
 energy: -83.583478440690 gnorm: 0.000976952930 xtb: 6.5.1 (579679a)
C           -2.66786986903512        3.70714876081147        0.30823062379602
O           -2.29777147586618        2.34392122727374        0.32357204062234
C           -3.30239828845146        1.46007781388652       -0.13786267498943
O           -4.37791045481716        1.95266356872282       -0.53968755230949
C           -2.95435977153720        0.09952368470469       -0.07182995145385
C           -3.73968541185772       -0.95624886474348       -0.60616877437256
O           -5.05247135903820       -0.74056833893636       -0.98658500531642
C           -3.23971753636431       -2.25080297028582       -0.80880226688114
O           -3.95421949114527       -3.19584179697325       -1.26840912260151
N           -1.87457081248999       -2.45289770177400       -0.52897369996312
C           -1.18747944259397       -1.55429860117413        0.08886353085219
C            0.27969321501481       -1.91760505222189        0.35126878869868
C            0.36141845608947       -2.81566494164570        1.59702549224618
C            0.80447560154513       -2.70504311421588       -0.86717258845430
N            1.05354390272205       -0.68921262341844        0.52137812918803
C            2.45509272124279       -0.73781864256804        0.64228541070111
O            3.06707940709849       -1.71902871804538        1.12139909527877
C            3.05191228050596        0.48107083122837        0.20760419359450
N            2.40966842003828        1.52006672467406       -0.34413085799780
N            3.36650406810096        2.45239185239808       -0.64245071563255
C            4.50707807474018        1.96604907298138       -0.27887112448868
C            5.83709663359286        2.61375508335249       -0.40571629846190
O            4.41198948795085        0.72856474925558        0.26759220285266
N           -1.67025715193601       -0.31387378764705        0.45178978128190
C           -1.28053742969075        0.27537267856733        1.73797690208027
H           -3.55740141563891        3.88700549971395        0.92532147063696
H           -2.88056422212441        4.05440881869474       -0.71141799033574
H           -1.83119846360552        4.27852201442433        0.71415419593640
H           -5.37086692822954       -1.60274005572358       -1.31108600275561
H           -0.37292869619687       -3.61624431437694        1.50541009917108
H            1.35266649330165       -3.25651146146160        1.68926244191572
H            0.15200276310145       -2.25013860481008        2.50367558246087
H            0.19187525706511       -3.59302239600795       -1.02042048373637
H            1.83650490734073       -3.01047654753760       -0.70128737907751
H            0.75570462033379       -2.08811144777622       -1.76439577910625
H            0.76101008754234        0.04410794084940       -0.12144105884996
H            6.28141463239946        2.76846249460349        0.57760432773752
H            6.51286786138222        1.98269267166677       -0.98358385207693
H            5.72800959129176        3.57402306265959       -0.90482515616795
H           -2.17715647938718        0.61463966874843        2.26136053658923
H           -0.61126388789073        1.12629257518184        1.59761750741385
H           -0.77698189448486       -0.46461081305415        2.35755198197408
