33
 energy: -57.847753443271 gnorm: 0.000534811192 xtb: 6.5.1 (579679a)
C           -4.71338584030682       -0.80162461529207       -0.43983439276802
O           -3.40445996605205       -0.50089769703176       -0.95671066568580
C           -2.40121363319740       -0.39032210471606       -0.15809869917026
O           -2.64615231185747       -0.55961561585789        1.09625027147396
C           -1.71542616522126       -0.46145323766777        2.18828957659131
C           -1.11129459165175       -0.08553818493578       -0.73779056294554
N           -0.04652431374942       -0.07062090328313        0.12924517309931
C            1.14529402055986        0.19702895072176       -0.28888799332004
C            2.28825029501464        0.22523799210953        0.70108227246915
C            2.60055799337561        1.69144121761536        1.03594886427485
C            3.53021689747140       -0.48220804849144        0.13471564605120
N            1.82453233141938       -0.43594061605967        1.91375755690478
N            1.39465287251241        0.49580852691074       -1.59991436412856
C            0.42767458273255        0.50516771545453       -2.56908238901591
O            0.64421131829415        0.75906874684270       -3.73874139557030
C           -0.92164180657902        0.18068083550608       -2.07877137134540
O           -1.88145250019814        0.18060135367912       -2.98251471522472
H           -5.37039862757761       -0.85040852436226       -1.30497781659741
H           -5.02392285544656       -0.01155433145081        0.24439683490260
H           -4.68518026289749       -1.75662713475570        0.08558154806571
H           -0.94409770797410       -1.22432748607375        2.09288433717088
H           -2.31137955349111       -0.62026824124785        3.08596883302763
H           -1.25102517198547        0.52405531161045        2.19811975698969
H            2.86111002314642        2.24077128713785        0.13317370517524
H            3.43803265206999        1.73358456211578        1.73040871492842
H            1.73047584511735        2.15414521238128        1.50013578445449
H            3.27388912207745       -1.48816192652841       -0.19277806100453
H            3.94639053483609        0.07234595348878       -0.70468017740023
H            4.28778281502322       -0.54837258185644        0.91366000604770
H            2.54537868111413       -0.37416310985603        2.62083177900108
H            1.66788831125297       -1.41586049713468        1.71569305673346
H            2.33307571298211        0.71248980739024       -1.90648219534514
H           -1.51186270081420        0.40553538364090       -3.86087591784101
