42
 energy: -82.973246607116 gnorm: 0.000730712549 xtb: 6.5.1 (579679a)
C           -6.53144575018247        0.18484614422520       -0.19276241847259
O           -5.17720276298465        0.60643440393236        0.01150862340939
C           -4.25538613257233       -0.33781840744579        0.04877860676183
O           -4.47953042623491       -1.51575111127139       -0.08265452849162
C           -2.85733419764949        0.20484840760697        0.27264205660926
C           -2.56552663834501        1.63763268417523        0.49415339187989
O           -3.37142276664993        2.53167351450115        0.63977590310947
C           -1.10093351179911        1.93802848879911        0.51086458280287
O           -0.78198609190747        3.22893131481616        0.56135034553309
N           -0.19017042047798        1.04829894719702        0.47587532717338
C           -0.54707744970803       -0.34335760536343        0.44905424304172
C           -0.18514314142800       -0.92488390993523        1.82937729874379
C            0.27795706173706       -1.01328646670826       -0.69754960295735
C            0.11376092012786       -2.53325936820870       -0.67502564016548
C           -0.16984351067915       -0.43555933475717       -2.04510423480369
N            1.66653443941754       -0.63172426270113       -0.44521152945537
C            2.71356164092379       -1.10270609581480       -1.15086924010386
O            2.66594992145801       -1.97897812719145       -1.99851896076707
C            3.99264490953925       -0.45058039115368       -0.76522794479790
N            5.17674841132510       -0.68311069955703       -1.23985580801504
N            6.03498966398934        0.14709831549603       -0.58226021172951
C            5.32193614476889        0.83605728499033        0.25305087176156
C            5.78515049307484        1.87312292589415        1.20034832049604
O            4.02116609910914        0.50714425410347        0.18798699734875
N           -1.92237265188154       -0.66742428891616        0.23567119063039
H           -6.61482393009809       -0.35778632218685       -1.13671661595576
H           -7.13528687833461        1.08907510089347       -0.21787108558417
H           -6.84645733447647       -0.46329514482033        0.62775266714754
H           -1.59034603860226        3.76736537307943        0.62085102372660
H           -0.65478454585903       -0.31490398509699        2.59793215390583
H            0.89396177555155       -0.90137711866444        1.96157876912558
H           -0.54680340331759       -1.94658438899645        1.91383318599944
H           -0.94386015510444       -2.77914042665921       -0.59070921945842
H            0.50280053638076       -2.96567393726576       -1.59532330867982
H            0.65085672424558       -2.96745918213756        0.16610453925577
H            0.44074894893710       -0.85483233586685       -2.84369826644554
H           -1.21373897095186       -0.68788775535570       -2.22462183833235
H           -0.05919509583235        0.64749899591505       -2.04502465141546
H            1.79803614911817        0.20749252038282        0.10397960118819
H            6.86561459634966        1.97488242387729        1.13241993435554
H            5.50497951223477        1.59956842133878        2.21731468926986
H            5.31326985679421        2.82737914485342        0.96670878235545
