47
 energy: -79.542069822121 gnorm: 0.000514056761 xtb: 6.5.1 (579679a)
C           -2.76885625169932        0.88891205302177       -2.37918579784166
N           -2.65792401274963       -0.46997770411311       -1.79577866473542
C           -3.20192838172462       -0.64963595010915       -0.39799399585433
C           -3.18447761574627       -2.16396604212245       -0.15667300149150
C           -4.62278101424603       -0.09026549094630       -0.36461817609026
C           -2.17467929794212        0.02550214920221        0.50538133056046
N           -1.03835506196370        0.25397382072780       -0.06809556965593
C            0.02262887485972        0.81021576105687        0.59342860044863
C            1.21285260355075        1.01894571538354       -0.29688817990065
O            1.12423447830235        0.82897283007204       -1.50493122673862
N            2.33695210015524        1.43156927817880        0.30797350739897
C            3.56667900759446        1.63762904566004       -0.45386971725697
C            4.42584295511775        0.39126411958903       -0.43773528310158
C            5.62226643119446        0.36847600465910        0.27352758951086
C            6.41020745922080       -0.77501646012320        0.29524039117187
C            5.97191776097879       -1.88565814645763       -0.40196749852893
F            6.72626937990173       -2.99628529678041       -0.38506021791073
C            4.78700791953965       -1.89860211913875       -1.11651919098782
C            4.01461520523706       -0.74662984163482       -1.13051700183322
C           -0.12398637671231        1.12356072088101        1.91125349834374
O            0.83932109903747        1.67281166574522        2.66695248473838
C           -1.38461925882133        0.87910086124510        2.59546709293256
O           -1.54168489908955        1.16375934869705        3.77472040972971
N           -2.39045956628891        0.30039662967039        1.82490497938593
C           -3.64870699936221        0.04015331822334        2.52789072474459
H           -3.81375508672224        1.12513084408843       -2.55257941693670
H           -2.22447605034773        0.87840206789660       -3.32067731621731
H           -2.31716688614676        1.59752189323227       -1.68971797469727
H           -3.10538007435342       -1.13749480309492       -2.41569967783421
H           -1.65262527806462       -0.68353149900854       -1.73484666116834
H           -3.86978314880384       -2.65486628977682       -0.84544613973405
H           -2.17955738382526       -2.55505123019266       -0.30937404898943
H           -3.49537560298269       -2.38687002034122        0.86160323991382
H           -5.13490679782680       -0.35770685150825       -1.28789121221379
H           -4.62036514559380        0.99287425735975       -0.25865158015881
H           -5.18313580754226       -0.52769073169606        0.45770056383972
H            2.38786950473101        1.50886359105674        1.31042461883401
H            3.28276567354075        1.88971732924212       -1.48058726017218
H            4.10165254319561        2.48100994840779       -0.01074742974193
H            5.94591272820620        1.24925265964831        0.81580393891137
H            7.34263347867796       -0.80492639032966        0.84387708954996
H            4.47804164994571       -2.78883485701592       -1.64871233230723
H            3.08433594644468       -0.73195677565295       -1.68539694234447
H            0.49789827404531        1.80464885492767        3.57267501891841
H           -4.02310708066636       -0.94536042022596        2.27060556111806
H           -4.37868092452092        0.80516715416383        2.26902618902181
H           -3.44513106973491        0.08249399823198        3.59781568536964
