20
 energy: -37.645430488882 gnorm: 0.000593257289 xtb: 6.5.1 (579679a)
C            3.51017617212600        0.98567424878478       -0.21592721438194
O            2.07381768054650        0.93578599909815       -0.10103272282378
C            1.52005189476489       -0.23802033246648        0.01195295692213
O            2.06484448953477       -1.30742425192670        0.03354127599937
C            0.01991949340328       -0.12406391512059        0.11983730681216
O           -0.63688964709425        1.02338593994196        0.13747102125273
C           -1.93547653751587        0.70876262468593        0.23933944799898
C           -2.96828200019486        1.75500480101138        0.29499373858189
N           -2.09769519888736       -0.58592446750842        0.28287565988628
N           -0.86088069826776       -1.09580838749828        0.20575863875247
C           -0.67687025148684       -2.53083339781172        0.24311596514901
H            3.76882801507556        2.04050939081612       -0.26397114743608
H            3.96133884225828        0.51027453797383        0.65580961603888
H            3.81849466928393        0.46563668431209       -1.12372542931894
H           -3.95627570333057        1.30148556842516        0.27371335694714
H           -2.84917423580118        2.33518898336447        1.21169134850368
H           -2.84753597320625        2.43713776303382       -0.54689586911406
H            0.24395701354331       -2.78243760513526       -0.27754244635722
H           -1.54009517655133       -2.99243330321544       -0.23040765882899
H           -0.61225284820003       -2.84190188076484        1.28579915541628
