16
 energy: -33.370235899128 gnorm: 0.000555232141 xtb: 6.5.1 (579679a)
C           -1.16480594166371        1.44068022080505        0.47318562995919
C           -0.64095625658726        0.05475141251532        0.06233980446380
C           -1.55148492202596       -0.61880139696811       -0.97835788390868
N           -0.45347741748016       -0.77992628184080        1.18973048056899
N            0.75979802786424       -1.09716247531552        1.30907633427275
C            1.44139562400336       -0.49572034990651        0.27699174320094
C            2.94249867495179       -0.62754292993176        0.05469405076984
O            3.58207437383450       -1.37196257922860        0.72778791538949
Cl           3.53771547510673        0.35792297010647       -1.17860747813153
O            0.67465321622549        0.18120993989997       -0.46847998288478
H           -0.47717617619744        1.88127774890156        1.19166318595142
H           -1.22574167587517        2.06480512535001       -0.41513434117815
H           -2.14932001916457        1.32107434560407        0.91914064619495
H           -1.12438521854075       -1.58033744927280       -1.25518200533869
H           -2.53661947753623       -0.75683481812349       -0.53926364452371
H           -1.61416928691483        0.02656651740513       -1.85120845480582
