42
 energy: -83.583526345313 gnorm: 0.000693607401 xtb: 6.5.1 (579679a)
C           -5.24499184692856       -2.04016968022853       -0.91523365601859
O           -5.08696900471293       -0.72653435167923       -0.38141487248226
C           -3.83368068437451       -0.15787196693514       -0.50973974839358
O           -3.66726900627911        0.60688177924324       -1.67303443823527
C           -4.65235185992671        1.59867852438545       -1.90361382765636
C           -2.78437683055410       -0.31022407316811        0.37619250277195
N           -1.64520785253528        0.44474650978630        0.08173505477849
C           -0.62331985433137        0.38973062938108        0.86700793392048
C            0.61321152692035        1.22603121196028        0.57940565356659
C            0.64571249059245        2.40305757086342        1.56829037540350
C            0.56658326094409        1.73772562106769       -0.86719403239380
N            1.77511708361060        0.35768660115529        0.80056644660977
C            3.06815229948812        0.79741373036096        0.47738580108661
O            3.38611192036358        2.00455909082921        0.41959241085482
C            3.95858557334119       -0.30285344943024        0.28784097571381
N            3.62867018466399       -1.59935064440253        0.31046894308132
N            4.77930510794231       -2.29648847082418        0.06159676741842
C            5.72732551516540       -1.43257936276883       -0.09769997733438
C            7.15487154345639       -1.71606772812822       -0.38889597533648
O            5.30677649738776       -0.15044622713469        0.02578055655755
N           -0.60300520268765       -0.37128921077785        1.99511380410942
C           -1.66115831126110       -1.20482068786646        2.39282531683953
O           -1.49930268563902       -1.87776720451073        3.44487621367190
C           -2.82635464138766       -1.19582896771136        1.53676741930233
O           -3.83098097938315       -1.94734764369921        1.78675029192698
H           -4.91696001917041       -2.08573108307535       -1.96066142800177
H           -6.30851769301829       -2.28015171704155       -0.86544902105378
H           -4.68058713190929       -2.77317729234817       -0.32539160236330
H           -4.41695948407115        2.07068560422162       -2.85920960828482
H           -5.65730344161860        1.16092813247593       -1.96154257511975
H           -4.64646526626276        2.36427791229239       -1.11454885261425
H           -0.27133725417531        2.98439271975323        1.47448730357184
H            1.49557515942647        3.05310924996695        1.36790199448984
H            0.72312682692974        2.02814048398319        2.58854135861522
H            0.59374583576442        0.89856004137689       -1.56222858869527
H           -0.36070279458098        2.28811894122967       -1.02544443600061
H            1.41051511018029        2.39555541000242       -1.06759189518497
H            1.61652380574847       -0.60757731317256        0.52650522945482
H            7.30537567395088       -2.79107940075746       -0.45438503104343
H            7.79208315798344       -1.31121290952564        0.39771682715215
H            7.45005767888984       -1.25355720291031       -1.33105504740396
H            0.22037759205735       -0.37814917624872        2.57602343272083
