42
 energy: -83.672100356504 gnorm: 0.000812971477 xtb: 6.5.1 (579679a)
C            6.37227963440092        1.10756418694924        1.39170722300090
O            5.26941307243561        1.19348655677343        0.50618874919278
C            4.24661754232224        0.32203145507555        0.74869684788766
O            4.31998023747291       -0.45885815667941        1.69514190093689
C            3.13846663063223        0.40775316859688       -0.18174123867711
N            2.13808767805626       -0.51508115461045        0.08637586293969
C            1.09457590571982       -0.59099422409408       -0.65956615981471
C            0.02285261656445       -1.63590709486905       -0.37675185806958
C            0.41012286006928       -2.38972819491589        0.90701816095079
C           -0.02339530727659       -2.64416058004499       -1.54294425073205
N           -1.27938555949793       -1.02565922577092       -0.10070614260934
C           -1.99763146506456       -0.52669760588905       -1.06102387430233
O           -1.76490881796942       -0.39650362007412       -2.29210582312842
C           -3.40099608189791       -0.02947151014522       -0.55553768285552
C           -4.49845291183400       -0.45945353395437       -1.52950355953684
N           -3.70192552869359       -0.51584841995873        0.80340450827802
N           -3.79947626376007        0.63930819193362        1.63360421913069
C           -3.66059870388587        1.65291163682146        0.87831353772163
C           -3.75540724063453        3.07177767134852        1.31742729796523
O           -3.42106143601836        1.40529789704529       -0.42675101998953
N            0.93034321074731        0.23870518009564       -1.74589393601599
C            1.82104600589617        1.19820099721997       -2.11869017136237
O            1.59905022626200        1.90619116272203       -3.10631092813189
C            3.06445656080159        1.31805407361787       -1.26654617778955
O            3.91627441204792        2.18255217575190       -1.56789228723833
H            6.81235771607996        0.10484776748108        1.37267344859472
H            6.06920405145072        1.33592895047014        2.41911411817570
H            7.11062681852143        1.83635564313846        1.05842205915174
H            1.37892838836824       -2.87712401142559        0.79542713865406
H            0.46144701262122       -1.69273000700703        1.74416864646443
H           -0.34591759517070       -3.14245986092568        1.12620826780867
H            0.92635518726721       -3.17681727970291       -1.60415570221637
H           -0.81957713203957       -3.36829819454886       -1.37245845484830
H           -0.20341097976858       -2.14646228888351       -2.49421292297534
H           -2.88725788641863       -1.04917742454415        1.14837495857826
H           -5.45034925139294       -0.01601290717660       -1.24366927172226
H           -4.23745694185525       -0.14133060742678       -2.53828221720651
H           -4.58931577989399       -1.54379420563024       -1.50703505709019
H           -4.58795530643841        3.56065527038469        0.81101244679886
H           -2.84229773877262        3.61080912202693        1.06221587390022
H           -3.91579719483493        3.11376106890941        2.39218438302344
H            0.08009035538584        0.13637993191570       -2.30156091285926
