42
 energy: -82.949308481971 gnorm: 0.000454517535 xtb: 6.5.1 (579679a)
C            6.23153723342305       -1.19327305616429        2.23476783738353
O            5.32585810557817       -1.08911786092898        1.13735749368707
C            4.17788570443505       -0.44499389116800        1.37684648641521
O            3.91461350662092        0.03295458578092        2.46427898470261
C            3.27210255322220       -0.36536062766105        0.20943793414276
N            2.12312605718565        0.30446309415986        0.47310315967909
C            1.21370583496234        0.46534079372303       -0.43847605351563
C           -0.02725792827091        1.26706411763300       -0.10006559777395
C           -0.19658225579327        2.45156592405089       -1.05733876163161
C            0.06394711667835        1.76415440022037        1.34327021754271
N           -1.22638300370619        0.39334991301741       -0.15778188630656
C           -1.80909633299549       -0.03614378014107       -1.26680678938274
O           -1.42358919438119        0.09171205599724       -2.40927228870496
C           -3.15294495128026       -0.82598660984342       -1.01857611944637
C           -2.99738391564182       -2.22985037793913       -1.60484939973202
N           -4.20645022520750       -0.08451568400292       -1.63135041476918
N           -5.04316918151586        0.28216430942744       -0.71560557184519
C           -4.61868367428634       -0.18554360920896        0.45830796721490
C           -5.28497998488079       -0.00544475665355        1.75454722290371
O           -3.49478850746073       -0.86335811902998        0.35131240347751
N            1.36370367479696       -0.03217071340243       -1.69609717216759
C            2.46582375507631       -0.75005718941494       -2.11540408449194
O            2.51834228779287       -1.18264843533077       -3.25314476045048
C            3.55488078889335       -0.93422490350336       -1.07778138915770
O            4.58073329914942       -1.54274693126377       -1.38697696404833
H            7.12055094704805       -1.69980844516788        1.86266442111413
H            6.49192818927115       -0.19933854809622        2.60852267810318
H            5.77938447774310       -1.77222233175282        3.04445728618177
H            0.64794292778503        3.12865153539670       -0.93747997027481
H           -1.11460062754657        2.98443398526298       -0.81694822058172
H           -0.23977794439587        2.12506210162630       -2.09387214608808
H            0.91796997458574        2.43178657539129        1.44644865055899
H            0.19632638939282        0.92451973680802        2.02376863975183
H           -0.84418990615135        2.30211757691575        1.60646251475020
H           -1.65829785502646        0.18012357492846        0.72641511714546
H           -3.94194835266440       -2.76051046238717       -1.51384742451211
H           -2.22395442890127       -2.76532480545424       -1.05964409259340
H           -2.72014388211039       -2.13765953727935       -2.65309484687545
H           -5.74800281891808       -0.94797256707013        2.05551736961189
H           -4.55369527197196        0.25588915736720        2.51841495669098
H           -6.05183078798640        0.76160593657124        1.68008620705528
H            0.61738820743996        0.08523586860039       -2.37157059376972
