29
 energy: -54.512899884772 gnorm: 0.000835176460 xtb: 6.5.1 (579679a)
C            3.96996184200618        1.53491342161694        1.08464843519139
O            2.70838620978305        0.99784564263244        0.67227161872645
C            2.72557354831664       -0.21329037383212        0.13491475236216
O            3.74974829920128       -0.85721578167992       -0.02015575239399
C            1.38895864257420       -0.72008352176617       -0.25295761729737
N            0.31739394446969        0.10814653897236       -0.04386369578605
C           -0.87012343908871       -0.30620342320735       -0.34459461181521
C           -2.02890025430207        0.63512833999180       -0.07779269310541
C           -3.36742511919299        0.12130281126640       -0.60537653482646
C           -2.09802088380527        0.86300648919892        1.44518053263050
N           -1.71148335403369        1.88499944971196       -0.76742800189412
N           -1.08364999445480       -1.54822288527560       -0.86237167317519
C           -0.08969125676186       -2.47159678540142       -1.13090531171968
O           -0.36128056832265       -3.56296808121821       -1.60279725907188
C            1.24635016618035       -1.97984182276426       -0.78429544646133
O            2.26010470527906       -2.81991584856702       -1.00833529903410
H            4.42381903690623        0.88510802405199        1.83617019493968
H            3.76577231427935        2.51723996564332        1.50525768987713
H            4.63953798509754        1.61897870055189        0.22580229022696
H           -3.31775569321757       -0.02925286439237       -1.68325704025755
H           -3.64859697093575       -0.81090408218676       -0.11773821341899
H           -4.13962324080213        0.86046192044185       -0.39743295000651
H           -2.32795637093400       -0.07089758197838        1.95707045026792
H           -1.13931297639755        1.23738635022772        1.80208012101370
H           -2.87209192741433        1.59347975126016        1.67246618739724
H           -2.41271366321096        2.57337121718048       -0.52946311747363
H           -0.81658571498144        2.22354985832847       -0.42920958855507
H           -2.02201840394987       -1.85382721429550       -1.07325917012785
H            3.11162413771154       -2.41069621451171       -0.73012629621264
