20
 energy: -37.577738902320 gnorm: 0.000842791042 xtb: 6.5.1 (579679a)
C            3.35093712539200        0.88718715576478       -0.10727561588432
O            1.97167710014430        0.46772734842817       -0.01378934344888
C            1.74295552246516       -0.82336648835409        0.06048196790023
O            2.56350525427147       -1.69608948996871        0.07155502905682
C            0.27890338298002       -1.14452105386516        0.13027806674185
N           -0.23084117623504       -2.31677189828407        0.16295672366475
N           -1.58794877937195       -2.21096696767397        0.21502364122916
C           -1.91087218074049       -0.97427259612070        0.21455154216150
C           -3.24668970005961       -0.36349293711490        0.26701432436994
O           -0.74874834422323       -0.19348957251719        0.15953751563739
C           -0.62942811927372        1.26530713855269        0.15606517663323
H            3.73535695844877        0.63047776652640       -1.09533512900533
H            3.93749130521326        0.38938560556951        0.66609237484363
H            3.34576572544600        1.96419943660002        0.03686329269036
H           -3.35040284945218        0.24671387492057        1.16507632912041
H           -3.99116262560713       -1.15816991470395        0.28068898467818
H           -3.41137390402010        0.27605641001198       -0.60056734154465
H           -0.14188348558583        1.54954729770575       -0.77275652707301
H           -1.63836894094591        1.65959224371191        0.21550983494233
H           -0.03887426884610        1.54494464081122        1.02442415328630
