46
 energy: -86.296983532225 gnorm: 0.000354135906 xtb: 6.5.1 (579679a)
C           -6.92162020462576        1.41636653797480        1.48554588964673
O           -5.83174892355757        1.20560838508326        0.57919917273063
C           -4.73774786113418        0.65063271185076        1.08355370164519
O           -4.62109755853962        0.32228857741253        2.24038771113980
C           -3.65169977560521        0.46253683623351        0.06852461928495
N           -2.54072016270806       -0.15070175278896        0.55949711772737
C           -1.50797045596755       -0.40875396408635       -0.18169964183261
C           -0.37871099565481       -1.14974952702296        0.51599133725498
C           -0.45085933999765       -2.63852833299546        0.14311209788986
C           -0.51519657077788       -0.98142461299598        2.03710091792748
N            0.90771057749643       -0.55343090334353        0.12417234247540
C            2.09547348020885       -1.09446557597375        0.45122176624641
O            2.30317727480296       -2.14974071435652        1.00122250245036
C            3.22202852886383       -0.18822737540639        0.02113639735177
N            3.05824906987768        1.01087788120365       -0.62268537495420
N            4.20502872158997        1.50728532337941       -0.81087310807754
C            5.20697627355495        0.63859064530443       -0.28305301926473
C            5.97520177049180        1.32627333487567        0.85354465670145
C            6.13524527333131        0.13272114946819       -1.39465810651994
O            4.45004548306207       -0.44969636111554        0.24184820742338
N           -1.47985841203924       -0.09768081254616       -1.51240296300855
C           -0.37745960032081       -0.38009127760327       -2.43258168562425
C           -2.54099594948121        0.57028545639095       -2.10939818070073
O           -2.52206675937065        0.89624492735128       -3.28754317785728
C           -3.68634682000668        0.84517475922920       -1.24886870879248
O           -4.70545713558475        1.46699587697192       -1.83204710405368
H           -7.75049706555501        1.79416090961643        0.89043954464039
H           -6.63558202575806        2.14550532175240        2.24699852965999
H           -7.19440354827412        0.47483398788607        1.96789608301421
H           -0.16193969868872       -2.79896227289407       -0.89247203265771
H            0.20520446713232       -3.22174856200384        0.78548783373057
H           -1.47556171632583       -2.98104844203119        0.28151484245346
H            0.30883960031607       -1.48968806826024        2.53344471582709
H           -1.45838000195124       -1.41320787249843        2.36723887643856
H           -0.49648828678849        0.07542646870995        2.29622172990995
H            0.90075183567585        0.39051145198411       -0.22932271272882
H            6.67696140349900        0.61460087739112        1.28217730095815
H            6.51045035262304        2.18092808404602        0.44747635479114
H            5.27050937249084        1.65555289965797        1.61402801831243
H            6.84328222733815       -0.57255760903718       -0.96562608628077
H            5.54094599351770       -0.35955350467157       -2.16112651711056
H            6.66452790657485        0.98058562167396       -1.82224910172296
H            0.18244958108089        0.53842938180069       -2.60434712411702
H            0.27448918606653       -1.14395124776275       -2.02941796960772
H           -0.80830759941286       -0.71676018340658       -3.37550887262930
H           -4.48683191146305        1.63755156555850       -2.76802378008821
