42
 energy: -82.969614054423 gnorm: 0.000607952346 xtb: 6.5.1 (579679a)
C           -2.15959466719138        3.58919243614360       -2.18939779834817
O           -2.04841074573814        2.55185956579514       -1.20346724279092
C           -2.47986863900238        1.35241325464388       -1.54284808605090
O           -2.92955567342465        1.05258222862303       -2.61839183906728
C           -2.33136254560825        0.36081634283128       -0.40762559447783
N           -1.19878225737218        0.23267003959009        0.16673752152846
C           -1.07855920541573       -0.76708456291863        1.14717679844388
C            0.31686488851452       -1.15097355306122        1.57024877076114
C            0.52231233184462       -0.67296862628327        3.01887015913293
C            0.46464416104415       -2.67664249560010        1.47416833577710
N            1.26972020352775       -0.49276474790758        0.68656401210261
C            2.60638518951673       -0.62657373112253        0.79414956720513
O            3.18651315136941       -1.31767277368128        1.61315763849959
C            3.30065167497507        0.18973375433522       -0.23540041810187
N            2.72994713243641        0.96788497780676       -1.10543352996181
N            3.72719962415672        1.52437382715718       -1.84849158547170
C            4.84338194179100        1.05026256052910       -1.38345440823376
C            6.21553971876623        1.34520207241674       -1.85087365779471
O            4.63952468441121        0.20291651218672       -0.36368705907346
N           -2.06897480413832       -1.32053236731952        1.73877758833781
C           -3.37176257849365       -0.98388416080037        1.36014532561364
O           -4.31837368309624       -1.06454929519081        2.09829013443364
C           -3.50504701397241       -0.54041984696049       -0.09268084873454
C           -3.38973041112482       -1.77251620593483       -1.02417236798276
O           -4.72234108148307        0.11574167326055       -0.29167533832075
H           -3.21178770208080        3.83097105950294       -2.35072687213585
H           -1.62895594232338        4.45065293260461       -1.79037629048166
H           -1.71161021889574        3.26138465916851       -3.12925271271277
H            1.50464565327399       -0.98183739639715        3.37089899248022
H            0.44789174171718        0.41210367813632        3.06690420099120
H           -0.24439383348411       -1.11437111871549        3.65303161314461
H            1.43337532681478       -2.98236434468713        1.86388360381082
H           -0.32382673597586       -3.14990630362504        2.05680140614917
H            0.37990420204518       -2.99205553532931        0.43578079076991
H            0.89298042920460        0.13082240184894       -0.01704515664795
H            6.69724543900118        0.42937365313286       -2.19295755518494
H            6.17809737141762        2.06300452572671       -2.66638243082261
H            6.80824173119348        1.75192712373575       -1.03184958096964
H           -2.43841804262439       -2.27622362593325       -0.87155092259013
H           -3.47014457720372       -1.43746086531411       -2.05644238411962
H           -4.20840303308602       -2.45264466480684       -0.80001549610878
H           -5.32516020528103       -0.09244405759104        0.44026171700577
