43
 energy: -83.121745400181 gnorm: 0.000611918661 xtb: 6.5.1 (579679a)
C            5.13876283184487        2.56781539439358        1.30356096095650
O            3.97766812246742        1.87377774240051        0.80943520823449
C            4.18258155343769        0.86812344184383        0.00225858255079
O            5.25401667342438        0.46047412730210       -0.37226304123067
C            2.89077653818620        0.21192522340794       -0.45170299890526
C            2.96010167921117       -0.73781082625759       -1.61013700180423
O            3.83455627333231       -0.38441427697805       -2.61831237463451
C            1.59431782332057       -1.02045862046586       -2.19961946278219
C            3.38286102953556       -2.09876009702920       -0.95220884831953
O            1.34310047090098       -1.44250874116703       -3.28176271979951
N            0.54101165184338       -0.83631509309252       -1.24763235459836
C            0.65226650867508       -0.16227438356710       -0.12098222822990
C           -0.50308877361692       -0.01972958646580        0.80633992825706
C           -0.47139242453297        1.31165101072019        1.56727395252704
C           -0.30774657255554       -1.21284517933545        1.77523463661174
N           -1.74088223625650       -0.15381903478913        0.05390002557495
C           -2.95366006243035       -0.27197824909309        0.68856065284413
O           -3.10266032664988       -0.52359156833559        1.86336807885481
C           -4.05816276263043       -0.07219038921004       -0.27057054550472
N           -3.93700657395169        0.25329590184491       -1.52419494274321
N           -5.19489147167510        0.36727666927104       -2.02237481969430
C           -6.00917167138355        0.10749398109888       -1.04032652455198
C           -7.48760332419608        0.10399522932185       -1.06902959291564
O           -5.34868757054332       -0.17603800946701        0.08979092315819
N            1.83388997974305        0.37376948453641        0.27400386006263
H            5.77398708413360        1.86890428156804        1.84951705096341
H            5.69327177617404        2.99147778963032        0.46464186609140
H            4.76725548661532        3.35121913066692        1.95940630914938
H            4.73260418495671       -0.23403600343337       -2.27661507378261
H            2.67336194624524       -2.39730906128761       -0.18531660006364
H            4.37267022813083       -1.97448082007974       -0.51884401664100
H            3.41891609518454       -2.84484402240729       -1.74424079820461
H           -0.37294128897636       -1.15749329910053       -1.54826206225209
H            0.47619906056203        1.41202055706209        2.09216935644532
H           -0.58715354583068        2.13955863665398        0.87044619608126
H           -1.28806035955735        1.32712525999430        2.28678141972328
H           -0.48198816344541       -2.14742564604391        1.24715067711743
H           -1.01381572028065       -1.11853048452183        2.59782873046921
H            0.70563993813176       -1.20075894127585        2.17189067679661
H           -1.77002836048135        0.29318497351848       -0.85161906022088
H           -7.83557431487993        0.35950962855837       -2.06705371329201
H           -7.86195839129243       -0.88136034664749       -0.79084146730814
H           -7.87334402088513        0.82637321625809       -0.34923284498663
