42
 energy: -83.630210981361 gnorm: 0.000407143220 xtb: 6.5.1 (579679a)
C           -4.87106754405252       -2.27207445360491        0.25724735201548
O           -3.89688680196202       -1.41179679432135       -0.25733997517500
C           -2.69290995320789       -1.15824526232576        0.68947330219578
C           -1.57536636225280       -2.07064515503819        0.06098519132899
O           -2.94073995403438       -1.40439627080534        1.93311631922923
C           -2.33338614000515        0.33875973314974        0.37261211681981
N           -1.02290603133194        0.59659782248385        0.07384435342066
C           -0.66250221177233        1.84371131840307       -0.13799335044280
C            0.80751172032311        2.10181348937186       -0.47265130782082
C            0.91657026859539        2.58222299969184       -1.92646373176217
C            1.37708874194229        3.15597956390400        0.48459008433706
N            1.51163984036757        0.83196631055420       -0.30920614452004
C            2.81745172273592        0.63624153434265       -0.47965881040562
O            3.64379808766444        1.48313180272949       -0.79928188768120
C            3.18213672897531       -0.78950080675181       -0.21723397719843
N            2.37407132652089       -1.72917295688683        0.16714963289725
N            3.12073046630121       -2.86502977953077        0.29570802844627
C            4.33562948226517       -2.54357208676571       -0.01815754984107
C            5.52518280462234       -3.42318616889486       -0.03873404665373
O            4.44300105040502       -1.24759217847600       -0.35111009836994
N           -1.42949094683807        2.92872189151290       -0.10864556814979
C           -2.74842850103480        2.75495423271811        0.19199316487299
O           -3.56517660200641        3.70960486860217        0.25169504069177
C           -3.19539382033076        1.39656760357931        0.45007777494748
O           -4.53393244271421        1.28820446601341        0.75895669272005
H           -4.62189927617648       -3.33676454204618        0.09515107308595
H           -5.82327305240257       -2.07130566463167       -0.25065572359292
H           -5.02580072346852       -2.12688519100139        1.34058760532375
H           -1.46876706390805       -1.88393175422048       -1.00687733542117
H           -0.62597891878282       -1.87585811928161        0.55929421805389
H           -1.85242914276554       -3.11169806043279        0.22218626776316
H            1.94752177356375        2.82751896851446       -2.17699711057663
H            0.29806416230449        3.47124890550159       -2.04926029918869
H            0.56144219129180        1.80755245647440       -2.60582791576241
H            2.38978893799785        3.43512237808463        0.19871778650409
H            0.73903413183077        4.03933809200988        0.44823415700018
H            1.39022008113255        2.77243084944113        1.50468475985396
H            0.90853840619981        0.04175833670479       -0.06428397260482
H            5.25532718507442       -4.41227712214390        0.32176468655265
H            5.91482553252646       -3.50177615956777       -1.05314616314630
H            6.30958878778019       -3.00581669817633        0.59086403431770
H           -4.88282794137708        2.19807860111771        0.71228532593862
