42
 energy: -83.626620161171 gnorm: 0.000494045493 xtb: 6.5.1 (579679a)
C           -6.47782429778391       -0.31738817694144        0.67686706953810
O           -5.30301912296200        0.08190829618690       -0.00229682572882
C           -4.15290871392977       -0.56422701809898        0.37709881412566
O           -4.21078614827245       -1.42217261514900        1.26269408314785
C           -2.94486128054294       -0.16287667714704       -0.32627433553292
C           -2.94356354063186        0.82386201747732       -1.35364421407409
O           -3.93363868381448        1.52619890842665       -1.71735161386326
C           -1.64347508512981        0.97610176335147       -2.08623857652345
O           -1.51299637178289        1.61803079098741       -3.14119990128077
N           -0.56837231909844        0.32748831730605       -1.56258598132163
C           -0.57100248303616       -0.50803547954440       -0.37759094866509
C            0.24240068948439       -1.77698924849348       -0.70766823239694
C            0.16303455732376        0.29090410407719        0.83510942564530
C            0.06114539297007       -0.55631958392601        2.10912074054178
C           -0.54833263888893        1.62612779169703        1.07150528306563
N            1.56972489930334        0.47085639383320        0.55054546638085
C            2.16311737824078        1.43838762528914       -0.21778514224319
O            1.60148344907290        2.47542725989994       -0.62120829938611
C            3.55716351839992        1.15843016725619       -0.49670185416626
N            4.41414175347858        1.91698065545983       -1.15979866744613
N            5.60505137829209        1.24056963466397       -1.17414059822004
C            5.42334672877964        0.13155423304648       -0.53747026532706
C            6.41978684927932       -0.93799255266957       -0.28879161778107
O            4.15878037516033       -0.00409228063082       -0.07549279154801
N           -1.85175686755675       -0.89231552418239        0.05824579522108
H           -6.40061537631335       -0.11588614729558        1.75130579100815
H           -7.30637451227705        0.25549522816578        0.25946829294456
H           -6.66947298222429       -1.38763110273234        0.53901997049284
H            0.30252375237944        0.40626314533907       -2.06371358597984
H           -0.20086684198974       -2.26124688867511       -1.57695224690662
H            1.28013912240172       -1.53639777514058       -0.93004412925840
H            0.20420531762474       -2.47065345688358        0.12852583550341
H           -0.96932093621275       -0.89274079189190        2.23820202871171
H            0.35770000758444        0.03030900832570        2.97852815175401
H            0.70812962034120       -1.43021002516718        2.05263695962328
H           -1.55314983837407        1.43258775420811        1.44878947441693
H           -0.00500477340652        2.21209180714813        1.81264468361116
H           -0.62541025133774        2.20967987637671        0.15498755819884
H            2.15614649840189       -0.31209101999118        0.78833556979521
H            7.39448543677525       -0.61790496611865       -0.64903400404951
H            6.48039758449847       -1.15679607538231        0.77685871553880
H            6.12984975578566       -1.85389937246126       -0.80450987757882
