42
 energy: -83.673636516521 gnorm: 0.000339782007 xtb: 6.5.1 (579679a)
C           -5.96627365298502        1.45543613726670       -1.30373570680110
O           -4.74991995898520        0.88858048857577       -0.84753037974045
C           -4.69083511983097       -0.48498625883051       -0.87326192864811
O           -5.65376355051709       -1.12585403679140       -1.27502912239003
C           -3.42369062827387       -0.99832200637837       -0.39537959393696
N           -2.49948872384972       -0.03521616292851       -0.01710352591734
C           -1.33941919905065       -0.38516136722555        0.40564077668215
C           -0.31180638636493        0.63774044119367        0.86864232240477
C           -0.48723635712532        1.91889457987218        0.03549158778522
C           -0.60438641636151        0.92862106133050        2.35661455540226
N            1.00756906857240        0.03755606308206        0.68591712944245
C            2.05240550352615        0.74139630901825        1.02586703556595
O            2.13977230924673        1.88490956989201        1.53306240601256
C            3.40516919237259       -0.01387544905711        0.74765976638395
C            4.31977670239928        0.05903295330019        1.97031798788676
N            3.19871984915097       -1.41412993374155        0.34004125342895
N            3.65753250031281       -1.51532408523588       -1.00669465619984
C            4.14964226793639       -0.38549899728017       -1.31731288910130
C            4.79256950717157       -0.05183798396511       -2.61735637310808
O            4.08133793859820        0.58176146810747       -0.37833313567012
N           -0.97901945045568       -1.70874593409189        0.51311152364851
C           -1.78014841001888       -2.75876314880597        0.17894876541184
O           -1.36880805945913       -3.91701925420287        0.29350315322988
C           -3.15705521194535       -2.39140796655294       -0.32683318717091
O           -3.94403215106875       -3.30736382730528       -0.64598587007054
H           -6.81091486297027        1.11107925487627       -0.69729563201062
H           -6.15538634872597        1.18916636288415       -2.34930763604411
H           -5.87061332912119        2.53710468036887       -1.21466502368527
H           -0.23591833010507        1.72251150370695       -1.00754523421184
H            0.15718849107128        2.71145467585441        0.41258403427069
H           -1.52508210446054        2.25061897269979        0.08817695582071
H           -0.45375316272765        0.02506294336508        2.94754488068585
H            0.05895686681675        1.70845609031064        2.72807729344448
H           -1.63747613938637        1.25821958660351        2.47355952653925
H            2.18254022185310       -1.59719229086901        0.30858080976753
H            3.87674990284086       -0.51066174316247        2.78505342646919
H            5.29744036018759       -0.35718716319514        1.73365066569941
H            4.43184285194756        1.09837243438831        2.27684823983255
H            4.27949014015090        0.78769324010752       -3.08601809253922
H            5.83013182777989        0.23814293892688       -2.45497632116906
H            4.75941937015333       -0.91416080155069       -3.27871262240426
H           -0.03322931828786       -1.89910334454665        0.82574583499954
