20
 energy: -37.579533694659 gnorm: 0.000748829478 xtb: 6.5.1 (579679a)
C           -3.83194841399701       -0.63819561769645        0.49117690238678
O           -2.42296927791494       -0.88954435600307        0.66419347782632
C           -1.59610122616495       -0.11503547466628        0.01162173818620
O           -1.88464657003861        0.79247766663910       -0.72257511110378
C           -0.17821281580071       -0.50741774333723        0.29411911379414
N            0.28691350244745       -1.44546668941977        1.02848815888731
N            1.64808784290597       -1.41527632884407        0.97047408672371
C            2.01448828721295       -0.46061436648980        0.20146617272611
C            3.36986082012482       -0.03292812680087       -0.17191499614657
O            0.87993374307927        0.19512292746789       -0.28821313590485
C            0.78551472006093        1.32665638042158       -1.21538967710238
H           -4.07179325345357        0.35602800774737        0.87052072980996
H           -4.34711143307159       -1.40708365057109        1.06195964690210
H           -4.08458667298270       -0.70069991416850       -0.56807934792406
H            4.08970735093126       -0.67716833906530        0.33053846973816
H            3.53729161150965        1.00286006339231        0.12511955617672
H            3.50805956902875       -0.10411823268397       -1.25133420468608
H            1.80357357798642        1.62788274229759       -1.44066424583923
H            0.23398077856682        2.11516811842737       -0.70793512910537
H            0.25995785956975        0.97735193335328       -2.10169520534510
