46
 energy: -86.357094592276 gnorm: 0.000437358146 xtb: 6.5.1 (579679a)
C           -5.67775426911688       -1.88863236161029        0.94379573436518
O           -4.45646318309549       -1.25675439921519        0.53741170280046
C           -4.37870175554230        0.05213710457779        0.71372229457506
O           -5.27763832033980        0.72009253117403        1.19265077123768
C           -3.09284986105029        0.64441229639430        0.27602101042300
N           -2.14256774980189       -0.19875422952968       -0.22743644848070
C           -1.00535026866108        0.26075769818948       -0.63186903265291
C           -0.06474404284840       -0.78508952228422       -1.21236380228058
C           -0.47791720605409       -2.17989547620656       -0.72247432047899
C           -0.09728828081557       -0.74610303312790       -2.74330124745618
N            1.32678574981534       -0.56480757999877       -0.77690721170132
C            1.70991514453581       -0.41533462196721        0.46827885928433
O            0.80609491308660       -0.36198922656656        1.39984667549079
C            1.13688480882896       -0.19963762309345        2.79015255428171
C            3.12357274587690       -0.29118137055838        0.71575983179816
N            3.77181493100945       -0.13810599859195        1.83848627321196
N            5.07725188721497       -0.06310695711626        1.53023963112769
C            5.17286021054191       -0.17138419211569        0.23089195258540
C            6.39225425288625       -0.13936447610958       -0.59616756404248
O            3.96985350281941       -0.31831379451967       -0.33510879264623
N           -0.70427737973859        1.59569588184822       -0.59926689533919
C            0.55275023184389        2.17721867625387       -1.06989558828893
C           -1.57733157193159        2.54214170471398       -0.04998877340675
O           -1.25060340344507        3.71409681804575        0.02609152197542
C           -2.85875917221043        1.99149814277252        0.38904597094764
O           -3.73119564977104        2.86471325195020        0.88709280669181
H           -6.51481452728552       -1.48271569532981        0.37134082186395
H           -5.55736549703356       -2.95088877011745        0.74249353084264
H           -5.84778294539261       -1.71754592795108        2.00899232888715
H           -0.51660538340673       -2.20428010257014        0.36434971618094
H           -1.46472556765200       -2.41937473150537       -1.11429811223934
H            0.24091214934779       -2.91592695990520       -1.07577672592054
H            0.53871156899214       -1.53325008455150       -3.14360511971703
H            0.24514831486845        0.21200796485206       -3.12678872522368
H           -1.11952934921471       -0.91342586325889       -3.07965559263661
H            2.05316219620147       -0.64696999502188       -1.47466749957332
H            1.74969794550785       -1.03789583778008        3.12412088794910
H            1.67902769850177        0.73558373816068        2.93695997247153
H            0.18391193457984       -0.18348626151500        3.31568000551729
H            6.37020354801772        0.73856821085282       -1.24328294763270
H            6.42704823689779       -1.02141524578325       -1.23517976159946
H            7.27286845151325       -0.10344597454037        0.04089029800925
H            0.32352399215412        3.12360532416804       -1.56079551033006
H            1.20342030816860        2.36491763199906       -0.21579747716263
H            1.04506764673368        1.51483417962487       -1.76878716500702
H           -4.55847898553522        2.40213815686227        1.15909816129814
