42
 energy: -82.932771522540 gnorm: 0.000187933739 xtb: 6.5.1 (579679a)
C            7.01364852652469        1.12475850347017       -0.10220925270849
O            5.60554099636016        1.36898837915768       -0.15600612230737
C            4.81783095420781        0.29732284688210       -0.21495916775576
O            5.24074615331064       -0.83625521850055       -0.23765963084172
C            3.36096080419383        0.63489437864553       -0.23686537320234
N            2.53829282609106       -0.42961774675654       -0.19891571134260
C            1.22000832138339       -0.22234496553681       -0.19082844126586
C            0.37472495231804       -1.48052798484564       -0.15105168394137
C            0.75850460729003       -2.31820599235828        1.07647558015221
C            0.60236682411949       -2.27097031634528       -1.44839545014879
N           -1.02113215882671       -1.06293529640350       -0.05774921428882
C           -2.05684086258778       -1.90691126742846        0.01178522633047
O           -2.00597951489417       -3.12667080889849        0.00190632450912
C           -3.36397052029746       -1.19292941095129        0.11245161540494
N           -4.56490613116822       -1.79925031018533        0.21008909950230
N           -5.46841809741288       -0.89800334519647        0.28378721301823
C           -4.85450271028563        0.40040051809764        0.23332497685877
C           -5.32559647081048        1.16631497674855       -1.00506459622444
C           -5.11801201372107        1.16807013021941        1.53093309501666
O           -3.45897703761201        0.10876073858360        0.11897680500485
N            0.60225125164482        0.93935310345320       -0.21761980062917
C            1.35318650745761        2.07936720607524       -0.27532067903453
O            0.88486887924044        3.21746638941337       -0.32253933525518
C            2.81932027613298        1.90889193129681       -0.28252417361406
O            3.52570515008382        3.03063263800554       -0.34847926321311
H            7.33997456490413        0.59956495172666       -1.00321348368305
H            7.49596779473231        2.09769649659042       -0.03606460367127
H            7.25572328891442        0.52045630290506        0.77548306156278
H            1.83016711042537       -2.51106751270857        1.04915894460561
H            0.51753874843959       -1.77256703443699        1.98729137902661
H            0.22177788077135       -3.26495771216973        1.07319352135793
H            1.66423354959567       -2.49384667236017       -1.54326948058851
H            0.03900623891966       -3.20196446704124       -1.42829037495047
H            0.28486190745547       -1.67711285590196       -2.30402030625534
H           -1.17662322556828       -0.05885410614534       -0.05215082583310
H           -5.09781245661832        0.58626902463138       -1.89671739776587
H           -6.39850969575512        1.32618190448330       -0.93577106814199
H           -4.81222335709568        2.12360845118034       -1.05078966131638
H           -4.60120877468720        2.12374915179169        1.49243622708724
H           -6.18758942259476        1.33122651221403        1.63486103467961
H           -4.75208149550731        0.58879496344261        2.37581446177997
H            2.89717683093913        3.78222052517836       -0.37418246792202
