42
 energy: -83.633719544303 gnorm: 0.000153364481 xtb: 6.5.1 (579679a)
C            5.63736923935947        0.48216045566412        1.30841386443415
O            4.32452895870764        0.51745732270823        0.79931869509649
C            3.96542723496672       -0.60891458701212        0.01041946485741
O            4.84236105246392       -1.47978787238342       -0.19069899027279
C            2.64319999984445       -0.58415647757572       -0.42830360228355
N            1.81397989379408        0.43842066919535       -0.00109854035724
C            0.55900622525551        0.42515107732701       -0.31286479373820
C           -0.30349992069181        1.56950588912991        0.22233715514503
C            0.10271697159315        1.90093557848375        1.66317999211458
C           -0.13664152693566        2.80146041127796       -0.68425502197864
N           -1.69395861149413        1.11210773725934        0.17428544043224
C           -2.75186195102808        1.81485327943245        0.58939422457582
O           -2.71293131070528        2.93174026603378        1.11278953538785
C           -4.04355186546981        1.11540941877241        0.38759179298313
N           -5.23387623773547        1.54797603622011        0.70627995908330
N           -6.11755655268772        0.56890150034021        0.34708191314236
C           -5.41989805179153       -0.39515345575528       -0.16538175950026
C           -5.91969276594573       -1.68182236902265       -0.70118537523774
O           -4.10376556567357       -0.11944202202588       -0.17248725900618
N           -0.09907825334652       -0.45950436844969       -1.13035984784604
C            0.59138211955499       -1.45282188313702       -1.67219830568807
O            0.11627586845613       -2.23602381455581       -2.52843450840009
C            2.07352676773163       -1.71157618559076       -1.26181379708487
C            2.11009467346339       -3.05597891078854       -0.49675840287622
O            2.80984535947333       -1.87196110234529       -2.49204098611696
H            5.78199004587180        1.38260015157290        1.90950245388482
H            6.38567707530189        0.46786977461223        0.50388559871386
H            5.80192286004152       -0.39940408913327        1.94326253980228
H           -0.12822250569224        1.06002973253314        2.31721161383235
H           -0.41261026237342        2.78790222659468        2.02873053650431
H            1.17887571978055        2.07701744741032        1.68954369186098
H            0.91515693751364        3.08577151750334       -0.71078201810460
H           -0.46389990463673        2.56326969572110       -1.69627085166982
H           -0.72169035940532        3.64221692703717       -0.31265874101920
H           -1.82592829096370        0.23265155261908       -0.32734148834623
H           -5.66485791492106       -1.77569723349841       -1.75683380194805
H           -5.46252041846318       -2.51459175745982       -0.16705123107261
H           -6.99929513955962       -1.72689702705662       -0.58540585871851
H            1.59938237824339       -2.95183640036790        0.46059615968199
H            3.14324586073496       -3.35671073335865       -0.32189671955339
H            1.61087488892516       -3.82820069215499       -1.08277993837500
H            2.20849527843988       -2.31492568577145       -3.11184679234945
