43
 energy: -83.876421069644 gnorm: 0.000413216058 xtb: 6.5.1 (579679a)
C           -3.35366430193433        2.51906264520494       -1.08062274208339
O           -2.66228640404148        1.34394752175858       -0.66402985058624
C           -2.92472149630107        0.22033882509646       -1.35774380696614
O           -3.69622574537853        0.21065785655836       -2.29910477418555
C           -2.27423624625174       -1.03156819484269       -0.75218831688771
C           -2.09983603768411       -2.09208150198398       -1.84709252318242
N           -0.96338479005994       -0.69751487855341       -0.20015716277418
C           -0.86917819259435       -0.38943299463928        1.04053365881798
C            0.49808154570878        0.02748041307213        1.57774389575300
C            0.41905647522222        1.43517271562623        2.18290771178268
C            0.99523448233605       -0.99033603202271        2.61246283027443
N            1.40073339123584        0.04059152707339        0.42801704906630
C            2.69230447260845        0.38454481628190        0.46052935939453
O            3.32809548797891        0.70892668127559        1.45380664243199
C            3.29146484802149        0.33351353196066       -0.90450447142860
N            2.67562002831841        0.01300874140945       -2.00185156408770
N            3.58967242338311        0.11388796973761       -3.01061403991872
C            4.70305166014494        0.49031404553155       -2.46245193341876
C            5.99877083819216        0.74258405801654       -3.13101929839690
O            4.58104301127732        0.64635111126518       -1.13518016348178
N           -1.89714144574041       -0.37930754502098        1.91989670065869
C           -3.11424464496658       -1.12997565088994        1.62924666692140
O           -3.85973345257144       -1.41672738136355        2.60713686727076
C           -3.24547367100981       -1.45828995393853        0.31758968684618
O           -4.35931449598413       -2.21429323025498       -0.12813827441379
H           -4.43554601225047        2.35935890067543       -1.05311497283154
H           -3.06069444718213        2.79312122300639       -2.09827269238861
H           -3.07644606416618        3.31310308819176       -0.38933658313106
H           -1.69516455018338       -3.00400925954227       -1.41044080167637
H           -1.41158772519726       -1.72978736568634       -2.61019230027915
H           -3.06159170961311       -2.31237597171579       -2.30905949727566
H            1.39389839159074        1.73614908173093        2.56237434509171
H            0.09540492648732        2.14826602827460        1.42550983858938
H           -0.29267725283262        1.44628743116429        3.00585354509872
H            1.97318298424594       -0.69454744981846        2.98854186496644
H            0.29973104999173       -1.03775870884787        3.44826259247049
H            1.07230163271619       -1.97776154978189        2.15900480880480
H            0.97038312032429       -0.22226779819116       -0.45905586681316
H            6.35650608308683        1.74193792953154       -2.88578160283665
H            5.87873333194787        0.65036631979212       -4.20751485964652
H            6.74312622183987        0.02450285291468       -2.78669097876487
H           -1.70889844011393       -0.26507790890649        2.90197366426180
H           -4.89434928059479       -2.40035893913543        0.65612634895295
