33
 energy: -57.871252983638 gnorm: 0.000205196877 xtb: 6.5.1 (579679a)
C           -2.96727780603835       -1.09297774498692       -0.64997735868151
N           -2.96605155813951       -0.11679619319977        0.46956832463518
C           -1.78672035927974        0.83111835284814        0.51523958269526
C           -1.84332415247150        1.75086772739715       -0.70067979428251
C           -1.92317409613325        1.62319123634219        1.81787915507288
C           -0.50160293822592        0.03535513120827        0.52295237478631
N            0.44157033796422        0.37356464804400       -0.27976669952710
C            1.65117743778985       -0.28342911632785       -0.24912870660614
C            2.64489697182769        0.25944293512375       -1.22709418516182
O            2.37115195426837        1.10831839525323       -2.04332658569592
O            3.85278752090196       -0.27511596785451       -1.09685549418072
C            4.86877232737491        0.20572964231609       -1.98528956508215
C            1.85343254857996       -1.32021929014349        0.62030990058196
O            2.98102028356768       -2.02419976291517        0.70599489613763
C            0.79006314002216       -1.72630168308901        1.54172868870453
O            0.90854129871853       -2.63843092685105        2.33946330414417
N           -0.36299100346225       -0.97623037649278        1.43589636641162
H           -2.04141392282613       -1.66076237546107       -0.61725472933228
H           -3.06035051788409       -0.55605525076972       -1.58952775253148
H           -3.82186233610920       -1.74824054941562       -0.50361786523302
H           -3.81597374817910        0.44000106688030        0.41493702223185
H           -3.01488743835437       -0.63179832792424        1.34427820099409
H           -2.80864134875535        2.25035455689276       -0.74830340967280
H           -1.05733251522095        2.49992534377838       -0.60937058012626
H           -1.67674039421243        1.19009727110448       -1.61865782153053
H           -2.85364602410465        2.18766001842266        1.81450583934904
H           -1.91670068664859        0.95245314989441        2.67487038783318
H           -1.08756864035970        2.31669470534528        1.90706774855355
H            5.79720916748071       -0.27533496773860       -1.68374401094649
H            4.61895320562418       -0.05906786897635       -3.01530671757437
H            4.95661245501366        1.29144519565401       -1.90053021991142
H            2.87610162742462       -2.71919163491910        1.38204103965741
H           -1.10603079015414       -1.21206833944166        2.07060366429034
