47
 energy: -79.493739309826 gnorm: 0.000578777527 xtb: 6.5.1 (579679a)
C           -3.92267331770480       -1.63961179809475        0.30412215547609
N           -2.77147865709027       -1.03509606389607       -0.37408349636906
C           -2.05462023637652       -1.88773095143749       -1.16422755064896
O           -2.34960259894691       -3.04801442406375       -1.39712560389326
C           -0.82849725819050       -1.31723738680498       -1.75727843825533
O           -0.11763438219049       -2.09558641594407       -2.50755730416442
C           -0.36066609401309       -0.03506379160233       -1.33505389883961
C            0.59885497856006        0.75454886197796       -2.21038462870296
C            0.48979031372218       -0.69142770420984       -0.01369482472620
O           -0.01067612459704       -0.60313787895834        1.06658321000384
N            1.63954363356669       -1.19893852301680       -0.38711386524794
C            2.61788854600381       -1.65882873622592        0.61036282623744
C            3.81307528902473       -0.73637210159396        0.65666464468756
C            5.09972901440601       -1.26900199573490        0.65060108891254
C            6.20608263897468       -0.43451587345520        0.72345687997994
C            5.99676445816112        0.93099169459255        0.79531167394272
F            7.05900155514634        1.74248151332282        0.86257665419625
C            4.73151019759659        1.49189683070219        0.79605212857747
C            3.63654883016233        0.64386858064273        0.72829881866429
N           -1.33389371124094        0.78276952172914       -0.74308482926902
C           -2.42437119634559        0.30899851731993       -0.25531407917340
C           -3.30617603461758        1.30747011023021        0.48150956339066
C           -2.84241324488595        2.73403855800272        0.14329545856062
C           -3.15620989310309        1.06777784213121        1.99130762572154
N           -4.70075793214078        1.14004123586472        0.09184203783396
H           -3.61901910851161       -1.95691544604565        1.30154387875089
H           -4.72869812989626       -0.91152401943913        0.36833931017526
H           -4.23914022904988       -2.50668489228002       -0.27383072355265
H           -0.52766100738485       -2.98567579932033       -2.59821121674337
H            1.20161564761843        1.42231770010790       -1.59870185019924
H            0.00650315149753        1.35206043357434       -2.90251032576839
H            1.24306870921399        0.08957648920210       -2.77955477408891
H            1.89617396380628       -1.29420670875296       -1.35563531023384
H            2.10814724700680       -1.68963981535911        1.57756564719441
H            2.91617717221154       -2.67097602170137        0.32941444980880
H            5.24061777831373       -2.34125736741597        0.58930633282573
H            7.21090369949255       -0.83569493051121        0.71937073212290
H            4.60675921525726        2.56544429977488        0.84836624576356
H            2.63651923235382        1.05939121823392        0.72255370885758
H           -1.82934659288785        2.90290299359678        0.50446038598086
H           -2.86253360819402        2.88985949551786       -0.93377504426539
H           -3.51364109542721        3.44801769951930        0.61724895417674
H           -2.10017324452191        1.05641466392647        2.25957347031392
H           -3.65293583265093        1.87069825999558        2.53379163427034
H           -3.60599981315103        0.12142432684858        2.28324058292244
H           -4.81942372483731        1.41952374275782       -0.87215627323938
H           -5.27703120413065        1.74062705629415        0.66567393804665
