42
 energy: -82.994228101441 gnorm: 0.000890684286 xtb: 6.5.1 (579679a)
C           -3.50371663450559        1.80520128970053       -1.05438656156128
O           -4.29556579558088        1.26738990922591        0.00154346359950
C           -3.90593208062928        0.33296826021789        0.85257705074203
O           -4.81623792236681        0.03984702236445        1.75828471055439
C           -6.07772322275498        0.70955939698691        1.73045737198642
C           -2.68276619022558       -0.34354301850154        0.88062587917974
N           -1.75465976928599       -0.04359074937630       -0.11430228303338
C           -0.62247658185991       -0.64189265846795       -0.15167570346877
C            0.36426653438990       -0.34716539742894       -1.27204062422505
C            0.56315763872403       -1.59856090495917       -2.13790529848960
C           -0.14932330163098        0.80121152956076       -2.14011793211584
N            1.64384166890078        0.10461870094672       -0.70601447153628
C            2.60466507581189       -0.67574738182893       -0.17550700888343
O            2.51530072556403       -1.87359990111061        0.04509878922538
C            3.81627582685756        0.11902171972648        0.14359199712433
N            3.96097238214022        1.40010892013846       -0.02018836255427
N            5.22069411410566        1.70905444166062        0.39473172297101
C            5.76576668745967        0.59548067647526        0.78388092601764
C            7.13384512663000        0.39603758210276        1.31024776075171
O            4.92774948675084       -0.44277522860848        0.65194095236481
N           -0.25461574349824       -1.59308709998610        0.76799580507795
C           -1.03826211909476       -1.99350953270364        1.81443563541844
O           -0.65170849220730       -2.83383609563391        2.60734979292322
C           -2.40129497181000       -1.32519390361690        1.90326085697606
O           -3.16071992748497       -1.64367523137486        2.81185157973086
H           -4.11397076336160        2.58304101181865       -1.51374230235608
H           -2.57985932210327        2.23438354318574       -0.66435248810625
H           -3.26717752894637        1.03372523066805       -1.78849258694672
H           -5.93979332939279        1.78482002561125        1.86106016868691
H           -6.58581279568122        0.52070263854047        0.78274427736371
H           -6.65594797373317        0.29939931092569        2.55676521016047
H            0.86443251987988       -2.45511063675348       -1.53885070625021
H           -0.37439198427503       -1.83424858909566       -2.63917792334072
H            1.32770166178174       -1.40477254439755       -2.88805991804090
H            0.57114377064235        1.02180693697744       -2.92558111251953
H           -1.09512671628792        0.52092162452206       -2.59938464173858
H           -0.30386839281330        1.69402383516971       -1.53647221159882
H            1.86087268866767        1.08273424671070       -0.82678150419108
H            7.09458449891144       -0.12702786199573        2.26556787740515
H            7.62098109894086        1.36018743483752        1.43705916689611
H            7.71309007377533       -0.21313340621565        0.61487768082209
H            0.66160997958925       -2.02577614602344        0.68369196497579
