47
 energy: -79.490696850649 gnorm: 0.000329934420 xtb: 6.5.1 (579679a)
C           -3.80511275015290       -0.88856994219266       -2.26869443065262
N           -2.64859015693571       -0.51876869040590       -1.44855789444059
C           -1.40247345499312       -0.47104697517433       -2.13181554251260
O           -1.31510312238647       -0.73177173196541       -3.29497914023185
C           -0.24270232148092        0.08657581731941       -1.30864837355495
C           -0.41931544568354        1.63092466301589       -1.34573958688372
O            0.97531845057952       -0.28626068418851       -1.86643367096026
C           -0.38200497592668       -0.39923692991611        0.09636112820605
C            0.74225068123531       -0.80702471301344        1.02435554032802
O            0.50309568017272       -1.44525736964731        2.03425126863567
N            1.96347945258282       -0.38846956753638        0.67556640662835
C            3.09299683990517       -0.68173182165189        1.56560990043081
C            4.37259265351534       -0.16664395520743        0.96215982340980
C            5.11832412865256       -0.97558545993184        0.10675567842539
C            6.29965177085869       -0.50953615829661       -0.45212158118958
C            6.71160803730166        0.77392577738402       -0.13967664652163
F            7.85385747704909        1.22982624552236       -0.67120633131235
C            5.99176612494658        1.60548787719213        0.69974959076710
C            4.81255345841580        1.12384352959858        1.25007787573823
N           -1.57137052975857       -0.45766804072170        0.59287572653510
C           -2.69561834911706       -0.30037946656004       -0.13345092801024
C           -3.93499422863162       -0.02029325412077        0.66543476615967
C           -3.55225500707150        0.79625786556041        1.91481022823931
C           -4.52921469663285       -1.37763795639660        1.09074598599029
N           -4.90518521501496        0.69803973730626       -0.13424904457026
H           -3.60810024380540       -0.57794655726356       -3.29284468220687
H           -3.93176879259134       -1.96973462872878       -2.22507693962997
H           -4.68898956425670       -0.38997845038984       -1.87443963500576
H            0.43247041025403        2.07978029339554       -0.84008964598965
H           -0.43889619212159        1.95988054740185       -2.38227960273723
H           -1.34089448505027        1.91961771681464       -0.84718205768748
H            0.94329455028297       -0.23056601120286       -2.83342190907473
H            2.13060416027481        0.11863772093685       -0.17777971299764
H            2.89247315221640       -0.21023309678881        2.53399878062133
H            3.13080103799279       -1.76637195630051        1.71675212429191
H            4.77412079925813       -1.97661830794233       -0.12475133428882
H            6.88883397490325       -1.12713371288662       -1.11767390050555
H            6.34534018674983        2.60529485840065        0.91538450009914
H            4.23090303211540        1.75727456136913        1.90900590873463
H           -4.45681638014524        1.01752773449445        2.47698719001998
H           -2.86515344864507        0.23529780729985        2.54620172548639
H           -3.08198074261159        1.73137998142722        1.61705914362901
H           -3.78598933499132       -1.96272358097196        1.63004018550172
H           -5.38218064236469       -1.19254992417845        1.74099119710585
H           -4.86252427630729       -1.93192946185248        0.21574431152976
H           -5.78151424297345        0.75925828588816        0.36422480919922
H           -4.57758445961277        1.63283538510539       -0.32890120474766
