42
 energy: -83.647489343461 gnorm: 0.000848926226 xtb: 6.5.1 (579679a)
C            4.89661228748557        2.68335418243757       -1.26786158705054
O            3.93805112385999        1.76109480743453       -0.77638379111895
C            4.11977179253348        1.35254474806910        0.52083813269119
O            5.05017450422411        1.79898930834951        1.17739283075379
C            3.12277198262071        0.38877690934006        0.94624454790278
N            2.17557617787136        0.05812457632370       -0.00682878942770
C            1.25541089638720       -0.79924638544046        0.25002528720746
C            0.23422230028945       -1.15338297375880       -0.82406589035991
C            0.62196926043190       -0.43249368471739       -2.11886967386762
C            0.21285833599176       -2.66870246390507       -1.07742423021815
N           -1.09458795543345       -0.66001860881534       -0.44812018500331
C           -1.92041212084064       -1.21799726835664        0.47313672362070
O           -1.57771066718535       -2.12057655130282        1.24493607841901
C           -3.26610640517942       -0.48542910555113        0.63196988416234
C           -4.39768187557463       -1.49271638437769        0.90446977243109
N           -3.03856295870309        0.42428192174783        1.75991304268088
N           -3.19881814339729        1.67894438715168        1.25367959009871
C           -3.49873330779743        1.63400967913281        0.01062697153109
C           -3.78024774163366        2.76753951605602       -0.91227831606723
O           -3.55970806690853        0.31918221826911       -0.50373667921448
N            1.17080048475243       -1.41994107633523        1.47491081525471
C            2.03463897163830       -1.19280445389258        2.50769890272757
O            1.89873985429871       -1.79919970900865        3.57194059119112
C            3.12818800066858       -0.17941023182634        2.24731531010356
O            3.93765764597322        0.07729925649393        3.15991110058001
H            5.90413331289202        2.25583519960165       -1.22981297451427
H            4.63139559331512        2.90058685434734       -2.30171466271634
H            4.88601862665053        3.60944752326360       -0.68304107013216
H            0.63105866802928        0.64627857005166       -1.96459267193632
H            1.61753904065564       -0.74402864994073       -2.43101098551091
H           -0.08687711352060       -0.67423582230977       -2.90830540705492
H            1.20034761144779       -2.99420883692869       -1.40184386989584
H           -0.06122180670298       -3.22020580467935       -0.18027543776015
H           -0.50787652321941       -2.89839542401259       -1.86058352182025
H           -1.54877280839958       -0.09277527026548       -1.15038660431227
H           -4.09788926836475       -2.16374212658125        1.70781167613366
H           -5.29718337619907       -0.95575525607707        1.19870512425866
H           -4.60428105870402       -2.07214744126615        0.00621460411564
H           -3.00591870584020        2.86407287402267       -1.67804795919365
H           -3.82268076376143        3.69334278188370       -0.33953525761067
H           -4.73439417757436        2.62348991811060       -1.42320349822294
H            0.43172737292331       -2.09977970273028        1.62757107714504
