47
 energy: -79.523874121533 gnorm: 0.000656348654 xtb: 6.5.1 (579679a)
C           -3.56660787904144        1.30739648313786       -2.35943768731940
N           -2.47045203750432        1.11721600476658       -1.39786542244839
C           -2.41064410968537        0.11687616355645       -0.49200410700011
C           -3.67948108797677       -0.61894747799729       -0.03459925003622
C           -4.89576297927147        0.33041886688550        0.02868410892254
C           -3.98967469463366       -1.83549486842520       -0.91774835880088
N           -3.44479662158670       -1.08204959773363        1.32831589870185
N           -1.23073614850358       -0.13114284564875        0.08585559976270
C           -0.93884560931490       -1.43682718166108        0.70848032741180
C           -0.15589627451669        0.75159203190020        0.02531391922500
C            1.01229634702558        0.54142837999844        0.97018474550981
O            0.85367487943952        0.06389415851067        2.08214965411157
N            2.18678491125948        0.96007431755402        0.48977597200450
C            3.40072550000942        0.91629627181204        1.29739825995560
C            4.45955970181338        0.04324221273589        0.66534099654791
C            5.80328377310102        0.29772948384826        0.93422866673918
C            6.79599364370241       -0.50334415137957        0.38878507998750
C            6.41742756559262       -1.55409045778080       -0.42802068854217
F            7.37109414096707       -2.33127748196658       -0.96212199946402
C            5.09387882859005       -1.83236933551448       -0.71730255792787
C            4.11352352239161       -1.02412244524342       -0.15894249778344
C           -0.27433584179785        1.85539468028346       -0.75738698539228
O            0.67306157990337        2.79224480821773       -0.84806198582776
C           -1.44472220807743        2.04984812803904       -1.59102320040388
O           -1.53675189803249        2.95227393209080       -2.39851122390151
H           -3.11008345700203        1.60093836663627       -3.30493018280376
H           -4.22113506116491        2.10755614869167       -2.01988119261214
H           -4.11245406508751        0.38378163312555       -2.49807808458638
H           -5.58133076999093       -0.06353311627590        0.77785918470615
H           -4.59347189904493        1.33032542484002        0.33260893004633
H           -5.43800594655024        0.38042596730290       -0.91102232032879
H           -4.08433604951990       -1.55024163760993       -1.96279837705544
H           -4.93043358414006       -2.27397608929535       -0.58892914064218
H           -3.20710987892919       -2.58674379584407       -0.83228320326487
H           -4.16607057169705       -1.74638600020510        1.57207593255546
H           -3.51431670486503       -0.29849756167407        1.96475297184279
H           -1.04972690452225       -1.37150045686524        1.78819599217909
H           -1.61004489205348       -2.18615622067256        0.30882577823329
H            0.08580551498413       -1.69979983763415        0.45235293921030
H            2.25429229496189        1.36525509045066       -0.42829387029893
H            3.12718637636859        0.52509064630057        2.28335821867359
H            3.77418867060771        1.93737883272758        1.42093847366483
H            6.07733367990794        1.12947111441877        1.57267677163140
H            7.84279403141418       -0.31448382862964        0.58876581272292
H            4.83595079791010       -2.66135179588871       -1.36318203359437
H            3.07070896132192       -1.22270248130808       -0.37303365072079
H            0.40766345322665        3.46888851745110       -1.49884821359057
