42
 energy: -82.983894107561 gnorm: 0.000466243464 xtb: 6.5.1 (579679a)
C           -4.00670313148406        3.80562615847937        0.10151366355170
O           -3.79053811790539        2.39529760694926       -0.03993094709203
C           -2.66263276821203        1.91179676272607        0.44473093615311
O           -1.80579753011755        2.56748740193407        0.98089573673480
C           -2.54311450620901        0.41335952728961        0.23811655119454
C           -3.75003155416265       -0.44259249274588        0.05118594374838
O           -4.85379770942398       -0.13994615171979        0.42503835044900
C           -3.45583882029049       -1.78607058868083       -0.62049223623121
O           -4.30861094526500       -2.44603317202127       -1.17778405881360
N           -2.16120621493932       -2.16075299609383       -0.55444347764385
C           -1.09410248969655       -1.45977690785955        0.13193745141852
C           -0.94730979995088       -2.02606026321065        1.55381179784903
C            0.22182332070792       -1.57377439896698       -0.70387955525040
C           -0.03090632067460       -1.05132576667209       -2.12325218933565
C            0.76085408503320       -3.00464753479576       -0.73143235282386
N            1.17965046572060       -0.69596134111654       -0.03263398925910
C            2.45878563890648       -0.53355427501485       -0.43607458153889
O            3.02465536408590       -1.18303775494774       -1.29642212691849
C            3.11442386154714        0.55343170781029        0.33639627703593
N            2.54566091153410        1.31646292066883        1.22052646311288
N            3.50034517159740        2.18028599587829        1.66614584572155
C            4.59111726548561        1.88958916273066        1.02400317571417
C            5.91524093686906        2.53679484008666        1.15229129488303
O            4.41081709533074        0.87219484968999        0.16889491455705
N           -1.36148077164680       -0.06284532156951        0.28007184648949
H           -3.20603765745197        4.35551409290355       -0.39699915074572
H           -4.02769297848409        4.07258737369668        1.16004891256780
H           -4.96521045146015        4.01945278629693       -0.36579072794977
H           -1.95729081030983       -3.09208407251546       -0.88333919946966
H           -1.83944179627307       -1.77999535037963        2.12697146076969
H           -0.07535036773882       -1.59377870487306        2.03927455868306
H           -0.84106511413401       -3.10665139794627        1.50781736597296
H            0.89370741544761       -1.08941598510905       -2.69687305803766
H           -0.77913358914936       -1.66674128198321       -2.61869073665472
H           -0.38473186704403       -0.02196236043244       -2.08271279719427
H           -0.00773691756708       -3.69369920251104       -1.07472795980349
H            1.09636742476964       -3.30839350036081        0.25813554638343
H            1.60496452436046       -3.06435857558770       -1.41642151516344
H            0.78970738346321        0.01293337790995        0.57830972930877
H            5.83926556084531        3.39717474642759        1.81247573683225
H            6.27122137342237        2.85440626277388        0.17283407678384
H            6.63715743046631        1.82906382286304        1.56040602401011
