42
 energy: -83.592005074765 gnorm: 0.000159485180 xtb: 6.5.1 (579679a)
C           -3.20897875952954        3.69687738477938       -0.37388689105701
O           -2.67112418681179        2.49064579884645       -0.87784639075061
C           -2.42539304476447        1.51454144038703        0.06894981196779
O           -2.67749737916592        1.75908672026922        1.25877961166278
C           -1.90818985083434        0.28876904360175       -0.43971497348353
C           -1.56810774128281        0.03462471641809       -1.78551849671207
O           -1.69058648874318        0.83820027564493       -2.74067683614625
C           -0.92644050727272       -1.31169323108832       -2.06264630788848
O           -0.76380985816984       -1.77171153183662       -3.21400866168533
N           -0.44991304913412       -1.97505261467201       -0.98840615275427
C           -0.78496772392193       -1.76498738411640        0.35366493497872
C            0.39809848312978       -1.81774292318974        1.31797158642338
C            0.00895713420233       -1.21603687106066        2.67349567802680
C            0.86418263750379       -3.26482611994227        1.53590755483879
N            1.51426120614124       -0.99533095778009        0.80781510510284
C            2.24257345195346       -1.27777027779710       -0.31783548278960
O            2.40306030202535       -2.42776719086729       -0.78903661217121
C            2.89874371376392       -0.12137251473810       -0.89066435208440
N            3.69656129098525       -0.09249834388246       -1.94568030340215
N            4.13042142208219        1.20094377830741       -2.07380356623826
C            3.59500575899403        1.88053155118709       -1.11473998532948
C            3.78834405310805        3.32159696743074       -0.82186777007802
O            2.79771269627909        1.12676394568673       -0.32291328968616
N           -1.74675181192120       -0.73076977322576        0.58170923000996
C           -3.04357737728424       -1.29164356841059        1.01465195820421
H           -3.35901064759058        4.36616298162239       -1.22204039240247
H           -4.16936174921604        3.52499836872333        0.12600285093767
H           -2.52708247749406        4.16761070632703        0.34401747897648
H            0.09624977291871       -2.80635865450965       -1.18551024971802
H           -0.78040554576898       -1.81045751290928        3.13117274837035
H           -0.35583075889560       -0.19520574123643        2.54924527545507
H            0.87007432093218       -1.20673865182207        3.34112133352979
H            1.76054956719608       -3.28851970693409        2.15591919404644
H            1.07937692094735       -3.76278428857909        0.59255405407822
H            0.07126552080155       -3.81491639965465        2.04153028600135
H            1.42526716208928       -0.01195889649644        1.02794529251688
H            4.53345405073690        3.73038498300545       -1.49987099179830
H            2.85427967231342        3.87108651613089       -0.94224968643715
H            4.12616965469375        3.45313708705646        0.20543782667175
H           -3.63662765033705       -0.51502315421817        1.50044601376182
H           -2.85047300090977       -2.09210468466111        1.72881210454838
H           -3.61048018374102       -1.70269227179788        0.16828246249805
