33
 energy: -57.848239339122 gnorm: 0.000713187872 xtb: 6.5.1 (579679a)
C           -3.40911158231060        2.44691399416900        1.36331920858801
O           -2.22246350372299        1.73646009757779        0.96121002634916
C           -2.31424321722599        0.53893297836379        0.51667543759272
O           -3.48857136298587        0.00687194746486        0.44550237619306
C           -1.09801813483916       -0.13444398612313        0.11918915043884
N            0.04496732833491        0.60160163021532        0.29322626643013
C            1.18498784755665        0.09020120059528       -0.04107358567922
C            2.44046497781662        0.93026616852929        0.13081054082352
C            3.66206404189130        0.07634588828556        0.47850443473152
C            2.66744804501491        1.70386595274730       -1.17784898981076
N            2.22071808396942        1.88737619758357        1.20402664924596
N            1.27076528767425       -1.16133193242638       -0.57589504330187
C            0.20953724301839       -2.01095119824699       -0.78867094107038
O            0.38109372675979       -3.12032417904664       -1.25515246903599
C           -1.08254640094530       -1.42040348743378       -0.39986052641693
O           -2.23094650352320       -2.07449201771264       -0.53367176629768
C           -2.31297209849545       -3.40895697879670       -1.07585980614453
H           -4.10435017524085        2.49547898327850        0.52470636967960
H           -3.87412471666405        1.92612318290540        2.20108334247278
H           -3.07789791456663        3.44072351260390        1.65581415785026
H            3.96985368164590       -0.53001950288484       -0.37168459598880
H            3.44235663403103       -0.57668854109804        1.32157904161438
H            4.48599628879899        0.73539495505821        0.75023477794349
H            3.53208756263743        2.35640196518797       -1.06305676802563
H            1.79198845952322        2.31015056321739       -1.40660780835811
H            2.84425763947199        1.01292369415866       -2.00031959405432
H            1.36521392407903        2.39689937655589        1.01288295075598
H            2.08124328279054        1.38192933581260        2.06945400808052
H            2.17076049959689       -1.53987040705120       -0.84092082566415
H           -3.49620881688961       -0.91080560299377        0.09353719579792
H           -3.37183467568868       -3.65978653669466       -1.05994554473095
H           -1.93378991878583       -3.42280385131339       -2.09864028995235
H           -1.74872753272829       -4.10398540248807       -0.45254438005603
