42
 energy: -82.999550900325 gnorm: 0.000553511647 xtb: 6.5.1 (579679a)
C            4.21055502040903        2.83480345635848        2.29896086276427
O            4.08960761145734        1.98066888305211        1.15982324106616
C            2.92950504028318        1.33945170453055        1.02505546126532
O            2.00944486622622        1.44374940386483        1.82316392914064
C            2.82451677518775        0.49715530185784       -0.16164502065161
N            1.59020955529560       -0.13116120903494       -0.23074950107195
C            1.18183949169178       -0.90626983378235       -1.19520321452241
C           -0.16373398925762       -1.60189324534575       -1.11509136856227
C            0.11390389597263       -3.01268568574592       -0.57388433108668
C           -0.82394184850395       -1.73412789548174       -2.49727135481684
N           -1.03424663246858       -0.76459082629804       -0.26530800792008
C           -1.36333238148822        0.54534006976633       -0.83851684430397
C           -1.59329910102583       -1.18388130357718        0.90121170977680
O           -1.27150434150651       -2.19758246623332        1.50152702827113
C           -2.65888675813501       -0.33717185490987        1.50919615601565
N           -3.02158180873724       -0.44255205822406        2.75167645215302
N           -4.06410213926465        0.41131357560321        2.93776797761464
C           -4.28818886260509        0.97957079703374        1.79461119174282
C           -5.32447311053715        1.98258440126094        1.46682496374944
O           -3.43435310776559        0.55130338824879        0.85020186017943
N            2.04226515250911       -1.15609401389705       -2.20142511980900
C            3.33382314805518       -0.63175855013895       -2.30494485007615
O            4.01272992419131       -0.92983063938555       -3.26355093209187
C            3.78404764331020        0.29006566126649       -1.18243737446956
O            4.91082723435207        0.78137998850131       -1.23053589594055
H            4.08862358544324        2.25748353052707        3.21916193823517
H            5.20648510390563        3.27267894674322        2.25711660722065
H            3.45026388473357        3.61913148997725        2.26311317666847
H            0.64660353513999       -2.97842823549974        0.37355539771284
H            0.73592376579910       -3.52983025153775       -1.30389383397422
H           -0.81522728342094       -3.56424190022134       -0.45363756467780
H           -1.85373158940488       -2.06131267934998       -2.36595502114046
H           -0.81821722733845       -0.79157653581167       -3.03907102250579
H           -0.29888637465920       -2.47922216428323       -3.09148569145400
H            0.95794650338004        0.07384820553720        0.54255892849762
H           -0.58527721670714        0.82299392573617       -1.54547913316410
H           -1.39238359351281        1.29070824939063       -0.04692362762754
H           -2.32442790668588        0.50920787210819       -1.35013199601540
H           -5.90868423534928        2.20879820538241        2.35573319918615
H           -5.97973980693911        1.59817798767505        0.68531864551539
H           -4.85615287632556        2.89328861603739        1.09415015126592
H            1.75524845430510       -1.74949231168240       -2.96435017217336
