38
 energy: -79.627273095859 gnorm: 0.000754876540 xtb: 6.5.1 (579679a)
C           -6.54239100526662       -0.74406860062712        0.03843595315262
O           -5.27634674132703       -0.72837493004703       -0.60327289202777
C           -4.26014733950007       -0.17369581768774        0.10732469855039
O           -4.45910751931339        0.26744418601259        1.23426401673765
C           -2.97740654921123       -0.15319216001382       -0.57762065046968
N           -1.97903329985036        0.44009964291984        0.17653255025368
C           -0.79178070705277        0.54308197870031       -0.28646753456314
C            0.29860216335488        1.23298576083913        0.50729238564637
C            0.54016448269130        2.63254267437418       -0.06697171744645
C           -0.09182801713969        1.31412898020316        1.98536067222321
N            1.55249348762470        0.48115857869271        0.35779569029687
C            1.66406486517125       -0.82011686516976        0.68888121741072
O            0.74892980349550       -1.53154070657524        1.06973900611066
C            3.04600652671724       -1.34200341795959        0.51736046669980
N            3.46173441966309       -2.55399141561921        0.71702234891207
N            4.79375358682780       -2.56668847014196        0.42229854145961
C            5.10725586957648       -1.36236689440039        0.06102951796982
C            6.43168872860864       -0.85647191699763       -0.35931468603603
O            4.04724099411338       -0.53755219025011        0.09867269169602
N           -0.45102853216785        0.09029606017855       -1.54521861567534
C           -1.33234082467980       -0.52547646081339       -2.39428832883576
O           -0.95263335936328       -0.90336587379031       -3.50095854443061
C           -2.74541633651466       -0.68346810703835       -1.87398872532790
O           -3.58420755115002       -1.24771770459979       -2.60138548861979
H           -6.87789321406912        0.27411819283941        0.25907324913926
H           -6.49760275589839       -1.30892194800956        0.97500033666684
H           -7.24260708095921       -1.22127103887815       -0.64619929477301
H            0.82798107896180        2.56518647364767       -1.11465577487611
H            1.33356242390927        3.13339445489748        0.48434526037824
H           -0.37077890542490        3.22427386512925        0.01133648213131
H            0.69674209684293        1.80491669799662        2.55137637622310
H           -1.01405617045352        1.88631355989145        2.07973709674383
H           -0.25648497322221        0.31523010416407        2.38803713567625
H            2.38330300012883        0.99633488406758        0.12977737132374
H            7.16172037855571       -1.66085124988658       -0.31870488599932
H            6.74438720715630       -0.04448929900503        0.29632702744548
H            6.37484880475637       -0.46446744037637       -1.37463254835298
H            0.48861196441231        0.22858741333954       -1.87681340541384
