46
 energy: -87.046764160365 gnorm: 0.000518193435 xtb: 6.5.1 (579679a)
C           -3.08158305126752        2.23691764278384        2.23371521574174
O           -3.76243795721236        1.07177391608932        1.84529546899660
C           -4.10094513156214        1.02471767023029        0.37004931641153
C           -5.36776544677885        0.09966835152953        0.37306112177192
O           -4.24713446676159        2.18080837107437       -0.17869094729935
C           -2.91942004255423        0.17866885764047       -0.28371954027796
N           -1.79059637050169       -0.03382513008746        0.45647361513013
C           -0.76081526447591       -0.65993737339956       -0.01219196869698
C            0.41206321863830       -0.85328836326883        0.94615091144741
C            0.58787453683186       -2.34100334590426        1.28149561922609
C            0.15276897943546       -0.06888375790360        2.24011611506274
N            1.61588531098864       -0.29395265194288        0.31119637759209
C            2.85906190404152       -0.40444020898300        0.82407313951659
O            3.18490811338366       -1.08736334693932        1.77829535435497
C            3.81867949358394        0.42213742451538        0.04265795495131
N            3.51690410638000        1.21957153518059       -0.93737732804780
N            4.68314890443695        1.78704650459836       -1.35612715657820
C            5.62179339798892        1.29959844517686       -0.60344437065681
C            7.06986060535594        1.59654516758484       -0.65898801097932
O            5.13908333731125        0.43396843152821        0.30035865417060
N           -0.73111487792933       -1.15061342310586       -1.29409344119942
C            0.36479795131976       -1.91921945739528       -1.87896020845703
C           -1.82731735979645       -0.99147300212561       -2.13438813732322
O           -1.82822449511994       -1.45031926041692       -3.28363757849085
C           -2.94137798598176       -0.27441829928840       -1.57255345299537
O           -4.00720027133375       -0.12525171565276       -2.40972381010374
H           -2.05892617836278        2.27331859009618        1.82252432079694
H           -3.01289171211881        2.23831373887349        3.32620032115442
H           -3.60967451016244        3.15057222731061        1.91634615812228
H           -6.15130148685064        0.60279450757445        0.93771875945266
H           -5.70768665540680       -0.05403000065807       -0.64823036939689
H           -5.14548623278543       -0.86000214515121        0.83672387737761
H           -0.38427375006989       -2.76470524091143        1.53164560383849
H            1.25035713804974       -2.45974015288785        2.13660689941229
H            1.00739426730416       -2.89340360633525        0.44527422954532
H            0.02889690811134        0.99035281828108        2.01954659565196
H           -0.75213487485168       -0.43825151265831        2.71984467957156
H            0.99491621191825       -0.19515372326957        2.91777465586667
H            1.47970720365396        0.40787116076668       -0.40325551586140
H            7.62778779073558        0.68830608232738       -0.88621526096772
H            7.41198357284273        1.96851690040572        0.30636801053789
H            7.26126226404371        2.34210712184256       -1.42655698403020
H            0.15537025411571       -2.98497552987337       -1.78116901447510
H            0.42462963931501       -1.67000991185244       -2.93881813853917
H            1.30736860163965       -1.68028826443162       -1.39998233252790
H           -3.78819358953397       -0.55902704097225       -3.25069340879356
