42
 energy: -82.953829379015 gnorm: 0.000463349897 xtb: 6.5.1 (579679a)
C           -5.11968556049728       -1.70910048841204       -2.02386875444851
O           -4.56689301041024       -1.08432989139329       -0.86696992331340
C           -3.32975529498886       -0.59116341867694       -0.99386039911781
O           -2.70403007007251       -0.66629108477138       -2.03558867202060
C           -2.79751569323945        0.04212006449660        0.23266592014982
N           -1.56396690999889        0.57229471285710        0.06353853322836
C           -0.93697516040836        1.14411257517460        1.04969703666352
C            0.41037291993343        1.76167185318066        0.75450113097478
C            0.24068694277855        2.76846174812254       -0.38873889681273
C            1.08640259295113        2.40136266038991        1.96530975695718
N            1.30258235051470        0.69554592442867        0.24615484887344
C            1.30244422415454       -0.49907402507243        0.82125375695487
O            0.50310290350818       -0.89550773544434        1.63663013064761
C            2.43835351046883       -1.47552197657904        0.30859711782182
C            3.17502736127622       -2.02488499088965        1.52693068326263
N            1.78597192078968       -2.46446825780703       -0.47486664131390
N            2.20802985740091       -2.36755863358897       -1.69926318824102
C            3.11799074200159       -1.40149001183130       -1.75606448890095
C            3.85815302385657       -0.96840902957227       -2.94921696147457
O            3.31210324044833       -0.82393315937150       -0.58572937054788
N           -1.50645492005372        1.27867913929911        2.27944113313231
C           -2.75810429404797        0.79514962652121        2.60613901905268
O           -3.19735731898048        0.95203340391748        3.73170214796979
C           -3.49707174811415        0.09235261188246        1.48594826549195
O           -4.61518054677831       -0.37629381077859        1.70577066474369
H           -5.16859524566621       -0.99818192495158       -2.85274136315533
H           -4.50697434445572       -2.56371524756871       -2.32312610953726
H           -6.12082926781227       -2.04091990826444       -1.75463122298410
H           -0.39140049397319        3.59156302703505       -0.06049627825509
H            1.21038526363733        3.16296684352765       -0.68347112274146
H           -0.22482408893850        2.27678822668072       -1.24270712313286
H            1.21718046922817        1.66880100767803        2.76028933378054
H            0.49529550722198        3.23882152353429        2.33087235884365
H            2.06673399640654        2.77218337787592        1.67356052654121
H            2.09377430565181        0.99570319270551       -0.29731105494327
H            3.90771429997234       -2.75831391298861        1.19918452613937
H            3.68031186025849       -1.20917727237801        2.03767714505711
H            2.45144508464324       -2.48865598343731        2.19434048129064
H            3.66670011197393       -1.64461442984381       -3.77880770811865
H            4.92458666764091       -0.93513513605996       -2.72569446920292
H            3.55401556472495        0.04290558231271       -3.22398239833188
H           -1.00375175303805        1.73322922810535        3.02344662900709
