42
 energy: -83.600212675244 gnorm: 0.000149080395 xtb: 6.5.1 (579679a)
C           -5.71372672947978        0.05612820010014       -1.40640113575599
O           -4.81896888066023        0.56508830780316       -0.42695476529474
C           -3.60551580696824       -0.04503015085575       -0.34313782321301
O           -3.33182132918028       -0.99798038914982       -1.05579224013752
C           -2.62904765007344        0.70555960978224        0.57922553937129
C           -3.36926552429871        1.30382038332478        1.79348625923591
N           -1.60146857351690       -0.20720551604111        1.04281151264064
C           -0.42083874928185       -0.13752791996361        0.47286480354337
C            0.55918888764298       -1.21589386426620        0.97187463342021
C            0.11237708289733       -2.56962336590135        0.39565719140643
C            0.54845100545151       -1.25550523116503        2.50650798942541
N            1.89137958701546       -0.87164262669144        0.48570591030025
C            3.00701360479975       -1.58424215443252        0.73198624095162
O            3.03929172435207       -2.64040286129428        1.38655312890258
C            4.22928097386319       -1.00877504647794        0.16552742729189
N            5.45007179337264       -1.49769428087961        0.25181396449565
N            6.26972800924512       -0.62261650813509       -0.40526796953128
C            5.52256702712119        0.33639785634696       -0.85036235277979
C            5.95697444371062        1.52504794703873       -1.62184316203203
O            4.22227473103751        0.16710077486571       -0.53323914078444
N            0.05228747991651        0.68014982471845       -0.45442072282198
C           -0.79403711978140        1.71076792144114       -0.88572872804295
O           -0.37986029797176        2.60363849915500       -1.69410909182752
C           -2.08130311958779        1.74127934888075       -0.35259047332549
O           -2.94158318108952        2.79786456712961       -0.72462981572157
H           -5.27033399703618        0.10806979946564       -2.40621752250211
H           -5.97210264436770       -0.98552303991543       -1.18929373995341
H           -6.61285544224720        0.66975832627256       -1.36977227797837
H           -2.64469943897894        1.79068370118648        2.44582217825768
H           -4.10633977684066        2.03819122517021        1.47169387285707
H           -3.87061709174397        0.51499731587214        2.35414436878090
H           -0.93151021135519       -2.73709803703412        0.66319645143500
H            0.71695994745083       -3.38568416187826        0.79080731592409
H            0.20003147860642       -2.55890096799441       -0.69140720293534
H           -0.47981581477882       -1.37652386368954        2.84843676670898
H            0.94159420735143       -0.32055031220943        2.90669411146112
H            1.14854687090173       -2.08244413316867        2.88466921588184
H            1.92771650788686       -0.03210222022326       -0.09396791318290
H            7.03350295091436        1.48644754108044       -1.76662483347224
H            5.69786567096013        2.43874915925927       -1.08675283260895
H            5.46339027769827        1.54935012709758       -2.59351407384528
H           -2.41477988297602        3.34387521534435       -1.33431806454495
