42
 energy: -83.600592348389 gnorm: 0.000950994426 xtb: 6.5.1 (579679a)
C           -5.16718403384980        2.14699171870414        0.67498240093396
O           -4.62971399249164        0.85519369270287        0.42964914210974
C           -3.33882845736440        0.81682365938314       -0.01241829933742
O           -2.72111479322222        1.84956181456160       -0.22970405248681
C           -2.75297117585262       -0.60444320661624        0.00011934565951
C           -3.80329897016089       -1.64956688566429       -0.41444532625684
N           -1.61315325071433       -0.67457365175747       -0.89423288421540
C           -0.42811998258552       -0.46715782896541       -0.36725866669456
C            0.70202911141605       -0.43317750427668       -1.41330886574920
C            0.40586930502902        0.67824532026537       -2.43181230384816
C            0.77139993769841       -1.79841226952467       -2.11518592430150
N            1.95128019487369       -0.16138965553720       -0.71198591596373
C            3.15669579199283       -0.04768145427580       -1.29801788153920
O            3.36214293954327       -0.15060732167338       -2.51911113255564
C            4.25451179644734        0.22394065239345       -0.36472418898541
N            5.52712916215473        0.39138488016101       -0.65948833167570
N            6.17604911942532        0.62166039881927        0.52248837060827
C            5.28282297201628        0.58358524138423        1.45900956187791
C            5.50074550328546        0.77257496064346        2.91287072007540
O            4.04571173054458        0.33884691376221        0.98187187415283
N           -0.05248889916669       -0.30996721758868        0.89257580500908
C           -1.03428059985647       -0.48680483838021        1.87691959999291
O           -0.72561993449780       -0.51653394238410        3.11130569348804
C           -2.34178735733012       -0.69161734383547        1.43698547385343
O           -3.35365778771460       -0.92236698579324        2.39350960532965
H           -6.19771442812956        2.01002075575952        1.00164717452107
H           -5.14933869042657        2.75425325974253       -0.23710213743735
H           -4.59834552387624        2.66671921382106        1.45406710481134
H           -4.17273411841618       -1.43252046983823       -1.41666425161144
H           -3.34251522771072       -2.63710192436865       -0.41956415212603
H           -4.64053624645761       -1.65208551250523        0.28204937071037
H            0.44598015670974        1.65317005551071       -1.94443974094822
H           -0.59752653217051        0.52715871491498       -2.83187345064583
H            1.12245692163063        0.66334328746334       -3.25255115789627
H            1.50437284037121       -1.78999602082440       -2.92153769409825
H           -0.21004097493408       -2.03179707513719       -2.52848748693730
H            1.04408943347086       -2.57369547159257       -1.39865860674975
H            1.85626445484177       -0.09069510603625        0.30339835200764
H            6.55892483254152        0.93505380932945        3.10006306016226
H            5.16769468310587       -0.10776028596352        3.46273350192806
H            4.93537040626689        1.63188494272661        3.27398218590422
H           -2.90056831644605       -0.89045931954686        3.25390410893838
