33
 energy: -57.871007832487 gnorm: 0.000400648011 xtb: 6.5.1 (579679a)
C           -2.31065913589513        1.84929574758533        0.26746169816291
N           -2.73703454990301        0.42790067626913        0.32708608213892
C           -1.71066824391002       -0.58226446512042       -0.14510425632206
C           -1.48833556397270       -0.39766394045723       -1.64287948546569
C           -2.29559533258657       -1.96243714162990        0.15923989990678
C           -0.42512676487275       -0.35524397916409        0.61839048764692
N            0.65729939183028       -0.12106125910303       -0.03256080081555
C            1.84387931268672        0.06068345843970        0.64072105051641
C            3.04704680087363        0.32382416155034       -0.20577345781944
O            4.15376409427232        0.54254361940383        0.22424310035224
O            2.75781430002210        0.28730319293283       -1.50581879373167
C            3.84590878921948        0.52327306680318       -2.40799476025477
C            1.88395221165579       -0.00136864958191        2.00791071328872
O            2.99011806334215        0.16428197604745        2.72882329026588
C            0.66141357254640       -0.26499717941333        2.77005495107791
O            0.62661821937357       -0.32720408701155        3.98515173917631
N           -0.46017389930604       -0.43755913044090        1.98449540273857
H           -1.40628967603726        1.96375510920162        0.85898316685196
H           -3.11720954666401        2.44618072724398        0.68459628136830
H           -2.13376633191871        2.12422612788784       -0.76822203942938
H           -3.57555681746417        0.31407022120421       -0.23755125235034
H           -2.99938930725544        0.21225473881523        1.28509939173725
H           -0.84423697456843       -1.19957721767581       -2.00188448027116
H           -2.43850065540699       -0.44084549112771       -2.17115093405327
H           -0.99852384388614        0.55228335391607       -1.84882863076484
H           -3.21565302491364       -2.10713742647945       -0.40416634596814
H           -2.51293919329821       -2.06413473993123        1.22060919566920
H           -1.57837949501743       -2.73012787649706       -0.12911685854946
H            3.44344923318437        0.41152410385432       -3.41270673854018
H            4.64276323923111       -0.20425198713750       -2.23316901504650
H            4.23721821438260        1.53340597559710       -2.26527752556750
H            2.77624078453546        0.08695326057748        3.67636827322695
H           -1.31944787027916       -0.62788194655859        2.47105265082475
