47
 energy: -79.491735146113 gnorm: 0.000655491908 xtb: 6.5.1 (579679a)
C           -3.69890578694932        0.13972757259782       -1.97127633934802
N           -2.51969298380840       -0.07014550839094       -1.12600290161750
C           -1.53138535322451       -0.90907340201931       -1.72393798956117
O           -1.65265850230662       -1.29143886273237       -2.84924666167372
C           -0.44276419410965       -1.40145749613328       -0.77884300367159
C           -1.06369781714809       -2.62311346890348       -0.04297840647108
O            0.69343845815072       -1.77314713917041       -1.49075025568346
C           -0.13837101079358       -0.33160147855396        0.21826496562107
C            1.21949141932601       -0.04187143380585        0.82602341726524
O            1.41452398726700        1.01103892922730        1.40644859527640
N            2.11874403183805       -1.02633700265166        0.71546496853990
C            3.46125944287877       -0.85802084534964        1.27170598384680
C            4.30359136040444       -0.04073177383038        0.31615951147679
C            4.91210873983562       -0.65489551040924       -0.77570771823006
C            5.66178343797257        0.09092266056945       -1.67424714220656
C            5.78129555674366        1.45212221329511       -1.45672713783648
F            6.50210373225132        2.18078863148778       -2.32124240289725
C            5.18438084982202        2.09293843296954       -0.38544782838571
C            4.43710675574189        1.33283364526572        0.50275616685639
N           -1.10773825939723        0.40861612183378        0.63828374978185
C           -2.34637433723189        0.40949935129004        0.10050420086809
C           -3.43993526343971        1.00659434814275        0.95533019877212
C           -2.84495706575008        1.60852219671676        2.23499895759037
C           -4.39398462868788       -0.14861291334790        1.31076104232762
N           -4.17221902008828        2.01151089371563        0.20242436546747
H           -4.25326135530775       -0.79585021947975       -2.02479770235065
H           -4.30973976759580        0.92928926522203       -1.54155466361152
H           -3.35290919651245        0.41368148122989       -2.96734358285078
H           -0.30914428690307       -3.04130353308469        0.61890096799746
H           -1.93374324230161       -2.31937398332869        0.53363051131689
H           -1.34988262172260       -3.36835527703274       -0.78198518012178
H            0.45895335121120       -2.30789918865811       -2.26377322780987
H            1.93976316746569       -1.83847890930946        0.14901093173549
H            3.36664625362680       -0.35057923921155        2.23567065998239
H            3.88171128406959       -1.85373249776947        1.41816316828113
H            4.80049607519001       -1.72141719190510       -0.92639190333942
H            6.13983828078161       -0.37261071624496       -2.52717342141984
H            5.30006163440569        3.16096344267434       -0.25320104902107
H            3.94875359006462        1.81088888620150        1.34371698936398
H           -2.32974541194214        0.84006642882794        2.80897196821596
H           -2.13868722386382        2.39848758537592        1.98518483099801
H           -3.64870953800959        2.02723358109708        2.83692005128539
H           -3.85012196765807       -0.94457729790543        1.81656063442239
H           -5.16854686396793        0.22962105382808        1.97538883703382
H           -4.86124725217224       -0.54896900537051        0.41396883475843
H           -3.62803165925773        2.86028794167294        0.13441610304684
H           -5.03959579889709        2.21795823135076        0.67613990597867
