21
 energy: -30.762157769975 gnorm: 0.000221772927 xtb: 6.5.1 (579679a)
C            2.62166014197411       -0.36632961107030       -0.73641339133821
C            1.80707125404437       -0.31947515357619        0.59499094437302
F            2.72894135654983       -0.42784506033769        1.59913515388221
C            1.13241605743095        0.99827302728445        0.60742351566130
C           -0.16843818300455        1.10718953284536        0.24084006192661
C           -0.95809600554530       -0.04562543411545       -0.00734233718664
C           -2.37948764718259        0.07743733995033       -0.38515925882575
N           -2.90588775941814        1.40746574843017       -0.23605197620419
C           -0.39511040097020       -1.33655670566902        0.17635269299951
C            0.89726885234942       -1.48540406607829        0.55990990591320
H            1.96027621161380       -0.29151495059385       -1.59455151495179
H            3.32532265486309        0.46294198232313       -0.73293586985791
H            3.16404092734493       -1.30863268969766       -0.76430051438223
H            1.74184542065691        1.86608973510313        0.83081553002056
H           -0.64470584468823        2.07800645778273        0.16195601460753
H           -2.46678559707614       -0.22835890262103       -1.43674779597924
H           -2.96974455331987       -0.66062945821024        0.18045230394390
H           -3.82949137706960        1.45821255656586       -0.63790112033393
H           -2.94677063327083        1.67537394239159        0.73569291214504
H           -1.03901398492458       -2.20238219542882        0.07169654158055
H            1.32469110964270       -2.45823509527812        0.77214020200614
