16
 energy: -33.440373816660 gnorm: 0.000720549218 xtb: 6.5.1 (579679a)
C           -1.87451602609248       -1.07284848730450        0.43215404824818
C           -0.52945265023478       -0.52946288814811        0.20039935531842
O            0.56273978067948       -1.25105041787469        0.31883284206590
C            1.58948795414445       -0.43454508843570        0.01517615460362
C            2.99415518508093       -0.94376665883633        0.04312949607350
O            3.26043350097555       -2.06656311896043        0.33570376396221
Cl           4.14278260019478        0.24041740869327       -0.38260424795754
N            1.16313445682822        0.75679770801700       -0.28268246381083
N           -0.17056399181930        0.68897524886201       -0.16296134320322
C           -0.98222857186017        1.85822094773718       -0.43734363063160
H           -2.56272173677100       -0.28138963288940        0.72109510626110
H           -2.24009393738538       -1.53198672225166       -0.49029409387471
H           -1.82966273077278       -1.84430691477052        1.20088246012636
H           -0.31133368653314        2.70140580147768       -0.58060159207728
H           -1.64566874424143        2.03290681221201        0.40735655837876
H           -1.56649140219294        1.67719500247220       -1.33824441348293
