20
 energy: -38.324852684786 gnorm: 0.000913906806 xtb: 6.5.1 (579679a)
C            3.54853070425087        0.97983597183719       -0.05852786652595
O            2.13951436688686        1.03446601182350       -0.01404400647751
C            1.51548971483224       -0.19528033771738        0.34578913000120
O            2.24133438655126       -1.17606652269087        0.66314317373881
C            0.16534778809507       -0.21974381929870        0.10878499742499
O           -0.63083426455364        0.95439440070084       -0.07219118111212
C           -1.84431372069108        0.60786669930529        0.36686238202718
C           -2.92619420268594        1.63292974260230        0.33370368025243
N           -1.99781741239659       -0.58780102798756        0.79208543674754
N           -0.72002568130518       -1.24592468793632        0.66760333140569
C           -0.89685241371485       -2.38403575528492       -0.24891268767735
H            3.90631258965908        1.98073669739599       -0.30996596448348
H            3.97366450534408        0.68160849849961        0.90981298648505
H            3.90133331600196        0.27198377432610       -0.82132659051156
H           -3.86146617536934        1.19247112447149        0.67039542733493
H           -2.66911276853650        2.47283090425543        0.97913862401231
H           -3.04817006893244        2.01188205269079       -0.68037354283336
H           -1.23737465428141       -2.05845895717827       -1.23678153225683
H           -1.62617125116463       -3.06964821783215        0.18193329659567
H            0.06680524201020       -2.88404655198232       -0.34073409414755
