42
 energy: -82.986897496307 gnorm: 0.000488964199 xtb: 6.5.1 (579679a)
C            2.53676671055306        3.67652460988985       -2.34554993828509
O            2.69340879819853        2.42799525954493       -1.67349922409341
C            1.56219509688363        1.77642641356879       -1.37078296504549
O            0.46992493868167        2.23607812108190       -1.65428374161223
C            1.79003273691121        0.49773806725129       -0.69551590314409
N            0.68059895203028       -0.30116380465561       -0.40893402159763
C            0.77549368065200       -1.49386766483827        0.10376070069866
C           -0.50666456620339       -2.26337133219047        0.25881282978428
C           -0.67685578516133       -3.20843247035093       -0.93312035645905
C           -0.59337589674658       -3.00614759510687        1.59068688412628
N           -1.49240570458439       -1.16463756561843        0.24462231275359
C           -2.85318007291318       -1.46922261164872       -0.21222310053434
C           -0.80100661497054        0.04599286267654       -0.83436788009982
O           -1.09309922483027       -0.20471254464022       -1.99065967181887
C           -1.26915561039891        1.26537822768532       -0.08693740745836
N           -2.20154681027074        2.09321713295017       -0.42213482819146
N           -2.37643278596911        2.93411794471355        0.64562468771092
C           -1.55852619535115        2.54637216914036        1.56721370248447
C           -1.37161147795618        3.12073836634409        2.91767675769732
O           -0.82910495416826        1.47829154123474        1.17355095763898
N            1.97156349114871       -2.01517160515660        0.43226785241627
C            3.17946948529170       -1.34259907236818        0.28762255398320
O            4.20849529996535       -1.87751800936040        0.64157962214461
C            3.09297313849546        0.03318215123353       -0.34397823267274
O            4.14565659189356        0.64815690251542       -0.51496681359931
H            1.98688221796217        3.54019798980162       -3.28072414138284
H            1.99550992789719        4.38370239871534       -1.71190641675072
H            3.53870859083715        4.04940350605409       -2.55062996527245
H           -1.58858230171791       -3.79104554018049       -0.82567928755991
H           -0.70973511261435       -2.64369043239031       -1.86439137258553
H            0.17036208021571       -3.89130149874198       -0.95964573543448
H           -1.59468979189629       -3.41241623971115        1.71736559241340
H            0.11793606025183       -3.82942665330031        1.60564369265995
H           -0.37576085302117       -2.33270538897113        2.41787650986590
H           -1.53080869113742       -0.76094471987203        1.17779343179644
H           -2.83781273595619       -1.64669237932590       -1.28650579033055
H           -3.47280386522036       -0.60226997817147        0.01015256904650
H           -3.22791990758528       -2.34175973709396        0.31561039437326
H           -0.33339862845797        3.41979217390579        3.06075015277744
H           -2.02227564775963        3.98339012732552        3.03954400503009
H           -1.61337591757926        2.37504713346846        3.67422171927799
H            2.01415435459750       -2.93264825539414        0.84445086522427
