20
 energy: -38.329152255346 gnorm: 0.000569355169 xtb: 6.5.1 (579679a)
C            2.86571741500513        0.82971473660670        0.49797082831349
O            1.47509965090188        0.53916351550792        0.46563677135009
C            1.14534019820205       -0.76394282665452        0.26377774183391
O            2.00677135044938       -1.63252173005548        0.15076543656749
C           -0.32994323864490       -0.97542034644875       -0.06381469428638
C           -0.83294226388837       -2.35797186951289        0.35798071391060
N           -0.20087154838277       -0.80409291674524       -1.51063608122283
N           -0.85794521782427        0.36715880300890       -1.79011438385728
C           -1.39338344389186        0.83978345695219       -0.72985109094148
C           -2.22050229586757        2.06957903014396       -0.59473349141898
O           -1.16570885785585        0.06300026975455        0.41624090289611
H            2.96679635410128        1.89350174426743        0.70844691669100
H            3.36231830106003        0.25073937943462        1.28295084754670
H            3.33666493770467        0.59601914700437       -0.46248461264344
H           -0.12465914361676       -3.11461916351583        0.02527847217849
H           -0.93421953981091       -2.40659507464106        1.44091714366343
H           -1.80161887571928       -2.54354003488848       -0.10104144547996
H           -1.74483024923286        2.79230328182217        0.07197912261502
H           -2.34888566871011        2.52518576350618       -1.57530031097907
H           -3.20319786397878        1.83255583445343       -0.18122878673705
