42
 energy: -83.581405794975 gnorm: 0.000291094772 xtb: 6.5.1 (579679a)
C           -5.28645235826072        2.41406013359961       -0.50141085207500
O           -4.73986573105364        1.71219210853448        0.60897466768012
C           -3.81214739802024        0.71757183733848        0.29672642971837
O           -4.38501905776674       -0.54215872249365        0.05457580638857
C           -4.37232397465702       -1.44033832469225        1.15668863791522
C           -2.43716543797272        0.90844575674208        0.28239228876823
N           -1.64616242516138       -0.22448029192507        0.10299346970581
C           -0.33914679503589       -0.05722690818961        0.08694367905750
C            0.45957501445769       -1.35251628905140       -0.11897305560388
C            0.03371641330025       -1.99466145666252       -1.44878672709015
C            0.17057847792799       -2.30754268204544        1.05024450450110
N            1.87481323063286       -1.00528051126406       -0.15316715379313
C            2.88423281463268       -1.88864636755340       -0.31236613722552
O            2.72849859107482       -3.11342383924083       -0.46556054068560
C            4.21372085442268       -1.28482395731855       -0.29364967469996
N            5.37591034190765       -1.90090963613719       -0.40899912861281
N            6.34048609218077       -0.93484314726189       -0.32739335893690
C            5.73349210274417        0.19746832875074       -0.16924411348518
C            6.35157262074822        1.53796046252788       -0.03262745989081
O            4.39053801825321        0.06491738309622       -0.13710273530853
N            0.36182615721059        1.05799926019827        0.22280425520572
C           -0.34909581275114        2.23622566404522        0.39415172927927
O            0.23763025755595        3.35482030820805        0.51403419719100
C           -1.76055565106240        2.13896046933694        0.42328214709081
O           -2.46006419836391        3.34576428208986        0.56404442955259
H           -5.78853521902180        1.73035557505025       -1.19822019564303
H           -4.50727710570216        2.96581300284807       -1.04355284218613
H           -6.01884063312748        3.12339519274430       -0.11013576857650
H           -4.90538367990937       -1.02391518874594        2.02183394085097
H           -3.34175048277053       -1.68052477334036        1.45411125580210
H           -4.87454154150216       -2.35673566928982        0.83811073890035
H            0.31195370329455       -1.34876443611007       -2.28207791866482
H           -1.04954336849222       -2.11998045126072       -1.44758473080858
H            0.50495369684513       -2.96775384878541       -1.58376600965786
H            0.53979265232617       -1.87999409224477        1.98257185613441
H            0.64413624271711       -3.27616304008851        0.89300599038777
H           -0.90764847254204       -2.44807454632327        1.13105567042303
H            2.07383617182327       -0.01459501679820       -0.01605451982344
H            6.04464767487312        2.00299185781156        0.90429094170368
H            7.43396363992129        1.44124014242155       -0.04916194654392
H            6.03602399610736        2.18510469024988       -0.85143706134759
H           -1.76437942177868        4.02807074123192        0.60687529440670
