42
 energy: -83.636129447912 gnorm: 0.000904135480 xtb: 6.5.1 (579679a)
C           -6.88965409914695       -0.17411208540824        0.83080183740241
O           -5.69123802055365       -0.17153827979433        0.06467500438038
C           -4.56571070702936        0.17374770505051        0.72262308819648
O           -4.58845401910543        0.46437684574883        1.90485678876452
C           -3.35183568307513        0.15749754605931       -0.12013768629629
N           -2.19924015075387        0.48677671603247        0.53712471686130
C           -1.07063915693928        0.49692789543827       -0.14841002654740
C            0.19431461092098        0.82668761989994        0.65135581881857
C            0.51219671396693       -0.43829929162540        1.48239955188872
C           -0.10662501872678        2.00497547535135        1.59430421431064
N            1.24642810222698        1.21842981110777       -0.28582151227189
C            2.67624437060959        1.16774003374514        0.21106354748208
C            3.45650787024987        2.11974325391678       -0.77699214283192
O            2.86175293220877        1.44738834405326        1.46758299648539
C            3.19817402342917       -0.26862583461168       -0.20195066801730
N            2.56025284021038       -1.20803178383450       -0.82895537436975
N            3.44063249373869       -2.26165131301940       -0.99074802288436
C            4.55162833189793       -1.88484654525735       -0.45445560223419
C            5.81616044265479       -2.65642303902705       -0.36751750125723
O            4.47481354475697       -0.64162128389502        0.05808352342022
N           -0.92778821553069        0.19616741483105       -1.44119344018650
C           -2.01920295130515       -0.13657673966466       -2.15967531469799
O           -2.00269945382601       -0.42937334155377       -3.37810260863322
C           -3.30201967232750       -0.15172791665288       -1.45581638511524
O           -4.36878083589550       -0.49030830499348       -2.22432258590042
H           -7.69036903668764       -0.49590560033891        0.16764165483203
H           -6.80546808537129       -0.86520086962322        1.67475195374660
H           -7.10393865008872        0.82813165162215        1.21346001320505
H            0.71909530686720       -1.28192229239012        0.82327974414820
H            1.37251147179514       -0.27271475687294        2.13059478888911
H           -0.35274466300206       -0.68260227273857        2.10075353295039
H           -0.96502627681407        1.77287566208589        2.22589879196995
H            0.75561676670480        2.21387878641786        2.22728119721491
H           -0.33328579573429        2.89550376212607        1.00592460091522
H            1.17626084479268        0.63269833730027       -1.12275224589788
H            3.08654659505255        3.13389226156998       -0.63528926323017
H            4.51558469318900        2.08705684144528       -0.52861520307886
H            3.31517180733899        1.82303730789290       -1.81514732647564
H            6.14556846054030       -2.72926330890604        0.66826340483380
H            6.60208602888290       -2.16128303877598       -0.93741934129960
H            5.66003083826806       -3.65498785123102       -0.76780381629556
H           -4.00285659840710       -0.64895552146633       -3.12159570319708
