16
 energy: -34.171490043709 gnorm: 0.000818070715 xtb: 6.5.1 (579679a)
C           -1.30217584576190        1.11633419023416        1.27968908894841
C           -0.62874957496911        0.09449679761768        0.35458953800160
C           -1.60048436088721       -1.02195804609131       -0.04855933677742
N           -0.13823726814775        0.77842409373422       -0.85552449827257
N            1.12928374158029        0.63801285902134       -0.91247937128827
C            1.58572754666013       -0.07545295383764        0.13291731691859
C            2.88611181907605       -0.43544858306518        0.41310625777471
O            3.38480308186249       -1.07933748517868        1.32056744633067
Cl           4.03513713011751        0.21732914368351       -0.88344384872488
O            0.52479251594623       -0.45115217313036        0.97315749853985
H           -0.58613012659851        1.89294071854388        1.54344892402306
H           -2.14947950593145        1.56967540375245        0.76995516687428
H           -1.64744931756682        0.62729469630154        2.18848435828321
H           -2.44866530620695       -0.59596196216266       -0.57995494827114
H           -1.95552115198617       -1.54628344239609        0.83650055725109
H           -1.08896337718689       -1.72891325702692       -0.69976014961114
