42
 energy: -82.931244029150 gnorm: 0.000899347927 xtb: 6.5.1 (579679a)
C           -5.19797799508268        1.96415357087216        0.79263086700915
O           -4.55640645699531        0.76116118130899        1.23530322024222
C           -5.15393146907319       -0.39137275756003        0.93087122605998
C           -4.38122016180864       -1.56838899410088        1.46011884441044
O           -6.18272809043771       -0.46279275065721        0.30354532650575
C           -2.24980858939451        0.59442366160710       -0.55464005818701
N           -1.54437951778181       -0.43600802483717       -0.33933995651992
C           -0.22127225716617       -0.30369669079404       -0.40044277984405
C            0.64241631184071       -1.51474263773521       -0.16254015187096
C            0.39114092990074       -2.53056772663183       -1.28747710121456
C            0.30284114219055       -2.11625384550332        1.20796093672768
N            2.02986354676446       -1.06325389987328       -0.19252046552174
C            3.08026308343145       -1.88353110883190       -0.00308298913091
O            3.01155707339077       -3.08134255180912        0.22260736059568
C            4.38140754691689       -1.17289998478048       -0.09770019680813
N            5.57032169717842       -1.67028260826223        0.04597448157054
N            6.45046334517647       -0.64516193198000       -0.13368810306511
C            5.74458068686218        0.41507932363636       -0.37665658326138
C            6.22867586223703        1.78670980312587       -0.64438239279855
O            4.42791786055486        0.14987442055688       -0.36814585084258
N            0.28568869067698        0.88001481176938       -0.68450620812448
C           -0.41128243306419        1.97050578664417       -0.90803682408966
O           -0.07342890520085        3.10400848249565       -1.16759523124282
C           -2.00899367158698        1.83035096463221       -0.82935982766420
O           -2.70747615809404        2.93056121902888       -1.03701057071293
H           -5.24851065229750        1.98210641352893       -0.29794573481128
H           -4.58931703007748        2.79085044409244        1.15127758423001
H           -6.20682768224007        2.02480575013836        1.20646459308516
H           -4.89291570803410       -2.49360499873323        1.21010718312873
H           -4.27828726392376       -1.47499160580901        2.53934024524533
H           -3.38368387784821       -1.56275264935052        1.02256525286634
H            0.96907455156904       -3.43501818446704       -1.10653860640334
H            0.68251401218407       -2.10387524542476       -2.24573638823816
H           -0.66806195188115       -2.78009346788883       -1.31397177271346
H           -0.76318070482065       -2.33389057545613        1.24674533238777
H            0.86163703925498       -3.03761175656280        1.36082932450883
H            0.55181684540335       -1.40880648093187        1.99724495261150
H            2.18734059473749       -0.08338414976591       -0.38337467774825
H            5.89331196105712        2.11286188545248       -1.62866641920246
H            7.31491311989406        1.80681047964281       -0.60300451244508
H            5.82093593960189        2.47575775123997        0.09481666524803
H           -2.10899026402269        3.66621867797111       -1.26204099398111
