47
 energy: -79.450672147139 gnorm: 0.000934323709 xtb: 6.5.1 (579679a)
C            7.30354304940385        1.43221603379020        1.27299687881923
F            5.94044594721693        1.58476186766815        0.83295723972189
C            5.01130251663330        0.51566748403564        0.44108366159974
C            5.09382843256000        0.07445852514794       -0.85349976917824
C            4.18848179768106       -0.91970483462711       -1.21060019802867
C            3.27340702562885       -1.41650743822442       -0.28393250710747
C            2.27831117028036       -2.48075317625543       -0.69590604980818
N            1.03427026313994       -1.85845713897015       -1.12428580548654
C            0.12790429983189       -1.46717783505725       -0.19790145987785
O            0.26383828064966       -1.72069429173793        0.99214663521125
C           -1.07063659644072       -0.73435578746288       -0.71616357667374
N           -2.00401261451544       -0.46071022263022        0.24254095521698
C           -3.09780340062332        0.18085101175766       -0.02387234484358
C           -4.01434749390368        0.44734195014801        1.16413968302214
C           -3.72425413831030        1.85951923550206        1.69541582566382
C           -3.71617159796055       -0.57959069108125        2.27027940756002
N           -5.41574623864360        0.35303973558005        0.77117727328548
N           -3.37618896493641        0.64193527265972       -1.28685381501659
C           -4.59198664580893        1.38677673853877       -1.62745123597702
C           -2.51027515979381        0.40108712825109       -2.33552992469062
O           -2.72934910278750        0.77709127421748       -3.48595926147495
C           -1.29919384416350       -0.32389889621962       -1.99693094315662
O           -0.45797414574914       -0.53440014924334       -3.03032160907759
C            3.25194680284617       -0.91279575265258        1.01670133938229
C            4.14258323924842        0.08068761950159        1.40790673642110
H            7.84007600532701        0.98792254304093        0.43942644900321
H            7.26639554125564        0.79147575305657        2.14916718501477
H            7.61635959325994        2.44843304125485        1.49360019536346
H            5.81507016695230        0.47317067495060       -1.55163967515962
H            4.20966922581547       -1.30913283390385       -2.22058297143002
H            2.06035842911509       -3.13918011980962        0.14993627354659
H            2.66844128647415       -3.06817044034933       -1.52835009085209
H            1.00002563276930       -1.51015358368525       -2.06865689336323
H           -3.98607877814865        2.61798708812068        0.95974637804013
H           -4.30661384480176        2.03660021033014        2.59865574475083
H           -2.66541930641623        1.95372219281731        1.93423756988308
H           -2.68983578342185       -0.47568152845867        2.62024732574423
H           -4.39641772891715       -0.41667189440159        3.10446234043947
H           -3.85648834688371       -1.59079738436006        1.89073290125110
H           -5.99283892480908        0.71919995420543        1.51585200508543
H           -5.66449752827315       -0.61939340365077        0.64148565552016
H           -4.42229874310581        1.89502397958964       -2.57644540310167
H           -5.42919018266642        0.69706540960296       -1.72368508939175
H           -4.81342045206497        2.11552237568679       -0.85446275045715
H           -0.84264704712197       -0.12379963755386       -3.83001433116370
H            2.53543214196924       -1.29546461580763        1.73463674691073
H            4.15199576219182        0.48593655668594        2.40979629885154
