42
 energy: -82.952400287577 gnorm: 0.000918307307 xtb: 6.5.1 (579679a)
C            6.68505831939637       -0.08139176926447        0.89418356322097
O            5.46597367365089       -0.08414062491629        0.15416177666270
C            4.33779991267220       -0.20568145613647        0.87315405867968
O            4.35183083907663       -0.31068145633261        2.08662859613849
C            3.11346938523959       -0.17283944337044        0.06575891414560
C            3.08400614357508       -0.15480887807902       -1.34241652645440
O            4.02635858830215       -0.14977110817284       -2.13788121673720
C            1.68425880214683       -0.22511369178460       -1.94410326895041
O            1.34573169414764       -0.56734273451082       -3.03024319980749
N            0.60161878352545        0.31426076854318       -1.03514830574524
C            0.68517434933196        1.79858022919297       -1.18350759650213
C            0.79584082751898       -0.09702154309383        0.37930200050238
C           -0.42892892650162       -0.34742573785581        1.23395165316223
C           -0.36535793566308        0.52895456572363        2.49198288796032
C           -0.41687165615043       -1.83034797172831        1.63801147439844
N           -1.66581103949070       -0.13496097244391        0.47627833932657
C           -2.31784916481955        1.04672822528397        0.34844620524793
O           -1.85388612923687        2.14388891000205        0.61135718351068
C           -3.68238276388830        0.88668481614286       -0.20187724006032
N           -4.54636705032527        1.81867202837347       -0.45914587117458
N           -5.66463088219028        1.20059691025151       -0.92593977410309
C           -5.41776647545536       -0.07302092968542       -0.92481640409920
C           -6.31691666926098       -1.17189198375817       -1.33684424500751
O           -4.17965693275665       -0.33865632991271       -0.47788678725336
N            1.95959084470844       -0.28020754942700        0.82448618557031
H            6.80571521633891       -1.02453691799178        1.43395394918627
H            7.49128518918040        0.04276541372050        0.17299652015585
H            6.69250727583821        0.74407041993890        1.61127751165209
H           -0.30292874105534       -0.00712562843715       -1.37860147702408
H           -0.09086329765374        2.24660626208015       -0.56909597531103
H            0.53059813428833        2.03854242718472       -2.23245561764094
H            1.66772470543936        2.12787261570651       -0.85286774237430
H           -0.27546600150056        1.58139576433562        2.23266773766488
H           -1.26138968029101        0.38025735640471        3.09109028867277
H            0.50909869127770        0.23537663119584        3.07181162066325
H           -1.25731806166612       -2.03890392411834        2.29695689958246
H           -0.49083447763017       -2.46289058285666        0.75523910613335
H            0.51316302071654       -2.05657209180563        2.15785712194617
H           -2.20094518680080       -0.96523212312153        0.27461685453992
H           -5.84324314563395       -1.76609350898068       -2.11833378049861
H           -6.51276268630935       -1.82763159936584       -0.48815436263074
H           -7.25462649208240       -0.76096078690794       -1.70390205735125
