# ORCA input file 
! OPT NumFreq r2SCAN-3c CPCM 

%maxcore 7500.0 
%pal nprocs True end 
%cpcm smd true SMDsolvent "DMSO" end 

*xyz -1 1
C       0.001408    0.000521    0.386785
H       1.001929   -0.229941   -0.132425
H      -0.701217   -0.753943   -0.125308
H      -0.302120    0.983363   -0.129051
*