4
Coordinates from ORCA-job /lustre/hpc/kemi/ree/PhD/applications/universalRXNpredictor/src/uniRXNpred/test/calc/methyl_anion/xtbopt E -39.924079997593
  C       0.001408      0.000521      0.386785
  H       1.001929     -0.229941     -0.132425
  H      -0.701217     -0.753943     -0.125308
  H      -0.302120      0.983363     -0.129051
4
Coordinates from ORCA-job /lustre/hpc/kemi/ree/PhD/applications/universalRXNpredictor/src/uniRXNpred/test/calc/methyl_anion/xtbopt E -39.926918030947
  C       0.001000      0.000481      0.363114
  H       0.976327     -0.224047     -0.124549
  H      -0.683132     -0.734827     -0.117435
  H      -0.294195      0.958394     -0.121129
4
Coordinates from ORCA-job /lustre/hpc/kemi/ree/PhD/applications/universalRXNpredictor/src/uniRXNpred/test/calc/methyl_anion/xtbopt E -39.927357025904
  C       0.000754      0.000448      0.342780
  H       0.979202     -0.224647     -0.117840
  H      -0.685078     -0.737151     -0.110603
  H      -0.294878      0.961350     -0.114336
4
Coordinates from ORCA-job /lustre/hpc/kemi/ree/PhD/applications/universalRXNpredictor/src/uniRXNpred/test/calc/methyl_anion/xtbopt E -39.927559307258
  C       0.000629      0.000394      0.323170
  H       0.989072     -0.226763     -0.111362
  H      -0.692029     -0.744665     -0.104006
  H      -0.297672      0.971034     -0.107801
4
Coordinates from ORCA-job /lustre/hpc/kemi/ree/PhD/applications/universalRXNpredictor/src/uniRXNpred/test/calc/methyl_anion/xtbopt E -39.927573877649
  C       0.000747      0.000317      0.318277
  H       0.992950     -0.227573     -0.109706
  H      -0.694778     -0.747253     -0.102370
  H      -0.298920      0.974509     -0.106200
4
Coordinates from ORCA-job /lustre/hpc/kemi/ree/PhD/applications/universalRXNpredictor/src/uniRXNpred/test/calc/methyl_anion/xtbopt E -39.927573990301
  C       0.000843      0.000276      0.317949
  H       0.993338     -0.227632     -0.109569
  H      -0.695071     -0.747340     -0.102270
  H      -0.299111      0.974696     -0.106109
