42
 energy: -83.583491048264 gnorm: 0.000566560281 xtb: 6.5.1 (579679a)
C           -5.44512261827692        1.28771615100076        1.70649934149699
O           -5.15485388732026        0.19425946216090        0.83791974030678
C           -3.93258640036764        0.23261371552049        0.19056054695644
O           -3.96741869429480        0.86774574029024       -1.05777533337069
C           -4.88174774057176        0.32664775031883       -1.99655873113178
C           -2.75103129427396       -0.29225381454608        0.67820422806923
N           -1.67090630587421       -0.25207496898237       -0.20830592106937
C           -0.54339434303644       -0.77574063241694        0.13728853198792
C            0.62563619340477       -0.78304839880940       -0.83474989550754
C            0.70024525381588       -2.17666509833641       -1.48082973890694
C            0.41554273984647        0.29792893800178       -1.90456603733414
N            1.84025627409136       -0.52759822694355       -0.05422142337264
C            3.07928997090128       -0.35936374855629       -0.69022816124945
O            3.33336827165435       -0.81219566641024       -1.82661524565020
C            4.00512347153134        0.33178516451743        0.14961772605794
N            3.74589158366512        0.85042968420548        1.35503815179933
N            4.91055578104926        1.42365854647453        1.78867092405734
C            5.79725893620053        1.24080803541216        0.86634362618237
C            7.21353330264211        1.68460647343695        0.88538201250230
O            5.31983864254128        0.56396611810502       -0.20560911407255
N           -0.35568320018315       -1.38932394414816        1.33696791209699
C           -1.32939175713707       -1.43886464775833        2.34841267440200
O           -1.00720656311882       -1.99779288701933        3.42983384788745
C           -2.60433658150914       -0.83935414707022        2.02431390504137
O           -3.54377208264171       -0.78335956517927        2.89091975497411
H           -6.47684860994060        1.16582280995046        2.04120785895282
H           -4.77858795462327        1.28327325942320        2.57824004426333
H           -5.35020695505006        2.24665977154019        1.18283751262611
H           -4.58775785888029       -0.68597035689284       -2.30586595133369
H           -5.89940305508759        0.28904455189487       -1.58845657239803
H           -4.87502002506042        0.98113811509383       -2.86979907046544
H           -0.25157329322908       -2.40710129265278       -1.95907820649888
H            0.90286467780039       -2.92788900272132       -0.71792546710005
H            1.48817688296375       -2.21522064752128       -2.23078039852852
H            0.41571886972485        1.28558056646637       -1.44336838948574
H           -0.54755593772946        0.14214797715678       -2.39049557732476
H            1.20488072792341        0.25300011786011       -2.65301831706480
H            1.70371342175773        0.13118213932620        0.70654890061631
H            7.41655583524938        2.21386971946956        1.81361394204565
H            7.88193752640769        0.82641182792966        0.80709993084747
H            7.41595789951456        2.34576675483528        0.04230452824818
H            0.53805989552096       -1.80224734441979        1.55198691045151
