42
 energy: -82.983357844962 gnorm: 0.000339730966 xtb: 6.5.1 (579679a)
C           -6.30580865880603        1.33173894326119        0.88409172713917
O           -5.03079901785173        0.82894289608115        0.50773470258803
C           -4.74729745271157        0.87393234801787       -0.83002341681953
O           -5.55886061902943        1.33455766359757       -1.61673409294224
C           -3.43707215554066        0.32471626677388       -1.13998250485772
N           -2.70312517314284       -0.10680801081513       -0.05011082032035
C           -1.54380106146436       -0.61954903789384       -0.21550279739602
C           -0.74162928052017       -1.12259790486140        0.96533865788693
C           -0.80872945433413       -2.65060264871364        1.03217048060661
C           -1.25048891563481       -0.49141319667782        2.26270950824275
N            0.67582298546950       -0.76207843005397        0.76319254475803
C            1.07177977282779        0.49308976657749        0.52847281800749
O            0.36808321181395        1.47810202395980        0.43934585187828
C            2.56187967623361        0.60042078583013        0.34337462606040
N            3.23971924254330        1.67133525939489        0.06201570956759
N            4.52069660248561        1.26036352916043       -0.01218338011354
C            5.56388018728828        2.21698198919582       -0.31292869797304
C            4.59602116884620       -0.03175570514165        0.22045774895198
C            5.77463204977433       -0.91335046638997        0.24654826380232
O            3.37359988747504       -0.47217888760378        0.44651191641188
N           -0.98032319561827       -0.78428586455553       -1.46515891612408
C           -1.57870887785393       -0.37154425141914       -2.62959171024010
O           -0.99690434157303       -0.52433388392534       -3.70009017264152
C           -2.95076383038089        0.24941042561260       -2.47381015168500
O           -3.54646683241806        0.63888729353132       -3.49247902413701
H           -7.10482753791066        0.78708237519368        0.37039564423823
H           -6.39098373281599        2.39640868023367        0.64276646792499
H           -6.39800565412926        1.19062342451406        1.96012771103594
H           -0.40664977274110       -3.08468091870845        0.11859379600905
H           -1.84510623056403       -2.96565481156306        1.14774264091483
H           -0.23161260547238       -3.01596514199537        1.87920834603432
H           -2.29151605822491       -0.77647513226586        2.41072648066646
H           -0.65541959395644       -0.83965597798040        3.10383206539377
H           -1.18931242644507        0.59454649176541        2.20322292156193
H            1.36561316034397       -1.48323188675334        0.86410488045273
H            5.45074208651170        3.06958246248364        0.35422729432957
H            6.52595392674109        1.73770002245578       -0.16191928637690
H            5.45772663910593        2.53716664713716       -1.34892742211638
H            6.50817180463570       -0.53685174897131        0.96018041366317
H            6.24502562351596       -0.93927331939708       -0.73766865750640
H            5.46679374151540       -1.91765752862698        0.53013624878417
H           -0.07192928798503       -1.20564354041037       -1.53934141561987
