21
 energy: -30.734926923891 gnorm: 0.000550432974 xtb: 6.5.1 (579679a)
C           -3.84256283881291        0.49341221706407        0.29425576297603
F           -2.88230768883338       -0.44880817307867       -0.21772993044967
C           -1.41619144772816       -0.37855297115290       -0.11535457283513
C           -0.85282087683881       -0.90102480834023        1.02016006829714
C            0.53497657040184       -0.85565431048249        1.08345806720174
C            1.28069490172289       -0.30397040220627        0.04049631540338
C            2.78588491865230       -0.27812124341974        0.11782062560561
N            3.33414542720326        0.74852283016969       -0.76124490599099
C            0.62915704336647        0.20723944180217       -1.08201810124184
C           -0.75666990774152        0.18211963581162       -1.17837465635408
H           -3.57633339974541        1.45655038647449       -0.13079248762922
H           -4.79330163530493        0.11231305975918       -0.06592994177193
H           -3.74765801388781        0.46173435524452        1.37532334729795
H           -1.45122312317300       -1.32209568703393        1.81532841704272
H            1.03287499711399       -1.25262589210340        1.95996581393307
H            3.10120428771970       -0.13481691602055        1.16055873447788
H            3.16221650135591       -1.25262091361985       -0.21368635943928
H            4.32996930971193        0.59956382536131       -0.84839102764027
H            3.19542510232592        1.65368809221474       -0.33227649698821
H            1.21629023850315        0.63770889193051       -1.88544937350582
H           -1.28377036600494        0.57543758162321       -2.03612029839295
