46
 energy: -86.300194220426 gnorm: 0.000666238388 xtb: 6.5.1 (579679a)
C            4.94928274690317        1.16867032501952        3.56586920506176
O            4.07217939368622        0.74678577192584        2.51434955137396
C            4.41550204693415        1.09874955434956        1.27853314539467
O            5.40674164422259        1.73414563530707        1.01354709246381
C            3.42551299670047        0.61262012502368        0.26584439861472
N            2.35403427658155       -0.07436921848175        0.74299288138038
C            1.42794355609392       -0.53935419071415       -0.03995864425667
C            0.33463753158345       -1.34465907350924        0.64578989109598
C            0.50049399827429       -2.83004804896482        0.29267108019024
C            0.42950886626215       -1.15055095289229        2.16603858339629
N           -0.97697655623531       -0.82877236748826        0.21863524252737
C           -2.13666257832911       -1.43155138914519        0.53387957390768
O           -2.29194908808287       -2.48772164785919        1.10434834190459
C           -3.32424183402592       -0.62619466783357        0.07693789113296
N           -4.62356435602070       -0.98320694024495        0.30051598575235
N           -5.36183647906164       -0.08362847287612       -0.19378052559918
C           -4.56576802232815        0.93929261672115       -0.78284851049027
C           -4.82216684396611        1.02350483564539       -2.29217379400266
C           -4.78568111569097        2.28063174810673       -0.07362062119831
O           -3.22844185621825        0.48659251140037       -0.54937807375194
N            1.48026402712032       -0.37523083603195       -1.39418952960523
C            0.50282954201928       -0.87315667587713       -2.36267651645629
C            2.53346310934620        0.30626617622238       -1.99242334858378
O            2.60024262025064        0.45517160128360       -3.20335191089210
C            3.55134396268395        0.82416860709404       -1.08589764539366
O            4.55807465137211        1.47686430724972       -1.65243951861199
H            5.03833525036083        2.25746100585673        3.56317258874365
H            4.50212411519077        0.82641175329585        4.49649553046702
H            5.93723636357510        0.72204998654726        3.43036404611929
H           -0.13337349697177       -3.44369352982618        0.92891180080295
H            0.24228395183825       -3.01778820518521       -0.74578062934170
H            1.53964408407287       -3.11198329307505        0.45548024409434
H            0.33749101173193       -0.09446802634081        2.41129813679257
H            1.39277985888632       -1.51442684045119        2.51869383753710
H           -0.36841177671875       -1.70618755865051        2.65461905959523
H           -1.01654355351351        0.10609902266013       -0.15216624554586
H           -4.15445897934415        1.76734590434344       -2.71928017572947
H           -5.85760996730764        1.31180634397243       -2.45728044432844
H           -4.62927964384267        0.05233273789103       -2.74220218654956
H           -4.10593419351405        3.01598365505913       -0.49691387114655
H           -5.81590551762658        2.59341755564176       -0.22582081386365
H           -4.58551319501609        2.16184156606942        0.98899060461284
H           -0.37973000894005       -1.24948980018941       -1.86327411598792
H            0.23462425499452       -0.04618599477354       -3.01906876989450
H            0.97027794574434       -1.66052155880806       -2.95422776591171
H            4.42719725634886        1.50497394252602       -2.61864105583175
