42
 energy: -82.971004841084 gnorm: 0.000546839606 xtb: 6.5.1 (579679a)
C           -4.25871485574693        1.77824665093940        0.40751641796388
O           -4.50163140477165        0.37210650601530        0.47375449637731
C           -4.25456926459410       -0.38735404220418       -0.62659093932007
C           -5.24212646360528       -1.52200150491274       -0.74570616328361
O           -3.79119164762419        0.22945274485507       -1.76332625957962
C           -2.79272927362174       -0.54494783913172       -1.11500272309046
N           -1.84028559282150        0.20097801996963       -0.39234301452510
C           -0.73650979692995       -0.33311566511113       -0.05395022962225
C            0.25235017999215        0.41209719261735        0.81747028148081
C           -0.03477714702871        1.91542097492587        0.80283856851239
C            0.14496608931019       -0.15943808707634        2.23944488130771
N            1.58782657350333        0.15669180983657        0.26802873797696
C            2.72437295330902        0.61468989711803        0.84611420790717
O            2.80053550153268        1.15686803762271        1.93194495993530
C            3.89617211562639        0.34980459469341       -0.02616770824518
N            3.86734472339415       -0.19620796101001       -1.20506097501007
N            5.15335912198716       -0.23448624864218       -1.65141199343170
C            5.88530275889073        0.29298640127405       -0.71642215084797
C            7.35161395535765        0.48912056900753       -0.71803270720952
O            5.14859296343061        0.68174012420515        0.33420660693095
N           -0.38003502856761       -1.62368610304753       -0.40405200509566
C           -1.08633453880474       -2.42060805802205       -1.26205702048057
O           -0.69225469692131       -3.51696986006279       -1.59193682506056
C           -2.38529463605951       -1.80279785233628       -1.77708260421778
O           -3.04135809867503       -2.36390533112679       -2.62773345278505
H           -4.64237376387151        2.19404075341485        1.33835139977894
H           -4.78388591334099        2.21609388412567       -0.44623087582244
H           -3.18855537641770        1.98415908004550        0.32181910466370
H           -5.06111615865173       -2.10779171742498       -1.64212561365994
H           -5.17729157987516       -2.15473135788360        0.13697953074480
H           -6.24149375688537       -1.09202475171377       -0.79518000759445
H           -1.03571989852090        2.09845629988428        1.18885891270954
H            0.02874000745113        2.29866936317419       -0.21410976347840
H            0.68771015350483        2.43474997018071        1.42963008185563
H            0.80004430673870        0.38660405514404        2.91482016099049
H           -0.88246200698315       -0.06407421428762        2.58695199193500
H            0.42614786129720       -1.21085510414626        2.24289396694769
H            1.65362284140487       -0.15119734767202       -0.69092546448996
H            7.58425093319178        1.54888187347318       -0.61352571765050
H            7.79882626464460       -0.03862583288248        0.12427100356010
H            7.77039563348297        0.11357548890128       -1.64832696929532
H            0.48853496226534       -2.00061041273384       -0.05512712778002
