43
 energy: -83.882658705097 gnorm: 0.000534202242 xtb: 6.5.1 (579679a)
C           -4.33391791766131        2.49940565187997       -2.22971687842146
O           -3.84938553536261        1.75731578196159       -1.11145657969393
C           -2.68613654397643        1.10149183440414       -1.29480591340789
O           -2.09449480258896        1.15674330766979       -2.35435956266002
C           -2.21685332193124        0.33035512218846       -0.10719102607974
C           -2.63109064818319        0.60000266894877        1.20345146722074
O           -3.58757037253079        1.56857683514750        1.53467215013553
C           -1.91531199936138        0.02065725741229        2.29245539094519
O           -2.08087714965104        0.24729415370763        3.50111847012322
N           -0.84775864485782       -0.80776604741326        1.90548900069364
C           -0.90594126884282       -1.49840763715163        0.62224682996495
C           -1.87990046258407       -2.69375971082785        0.70942800218101
C            0.54663325863463       -1.93792581199810        0.24371422800850
C            0.57616696770569       -2.56276345990920       -1.15636358420547
C            1.18775777372628       -2.88770793642749        1.25957373218422
N            1.29376998010261       -0.67494696706582        0.21870621111690
C            2.58794400849722       -0.53224015926831       -0.07447228674736
O            3.37960663037900       -1.43011944531578       -0.33160787728337
C            2.98076040920617        0.90852646219661       -0.05287738975591
N            2.19737159001757        1.91441365993278        0.19318801795044
N            2.95946398011658        3.04212981417806        0.09650296896512
C            4.15973113113120        2.65060737762524       -0.20293757400528
C            5.36147927704143        3.49072189495939       -0.41560340681707
O            4.23817526593513        1.31630855290133       -0.31148847707401
N           -1.33803367143803       -0.60790207937934       -0.43207143092528
H           -5.23088931992677        3.02062196803990       -1.90150714735778
H           -3.58230524322860        3.22010911549291       -2.56472017318592
H           -4.57470959606778        1.82447115852982       -3.05549104763529
H           -4.33123225791410        1.53305376025494        0.92160925906260
H           -0.53214350860073       -1.39364970589741        2.66605902155958
H           -1.55917824151717       -3.40463364522334        1.46789215208136
H           -2.86982779776095       -2.32502980675631        0.97590144946588
H           -1.94629538301441       -3.19662802936890       -0.25286253864281
H            0.05192720380948       -1.91498516376147       -1.85992311219985
H            1.60473588343686       -2.69597672120070       -1.48833454567103
H            0.09207631475038       -3.53731669698602       -1.14058094879558
H            1.25185952072523       -2.42403745609508        2.24244844964972
H            0.60439488824375       -3.80269168576244        1.33786490858082
H            2.19452638308163       -3.15062064932468        0.93675928287299
H            0.74085224690632        0.16011989807101        0.39042626523283
H            5.16161216930298        4.24467774055015       -1.17581044108170
H            6.19448109186470        2.86837126915019       -0.73252801391798
H            5.62852571239069        4.00313452993685        0.50844669756778
