46
 energy: -86.367436476095 gnorm: 0.000349511152 xtb: 6.5.1 (579679a)
C           -4.67935486415012        3.64420293424180       -0.60723299340573
O           -3.64015841238101        2.65231742775594       -0.56586807690571
C           -3.81037342253513        1.64701326357199        0.25938371221527
O           -4.77427304811904        1.50795071686091        0.98645084797991
C           -2.69858345435004        0.64712121509254        0.23082040705524
N           -1.64687693775172        0.88197472010559       -0.56463304517113
C           -0.65227034229006        0.04200270294591       -0.64124471114338
C            0.47216011666837        0.42864321412361       -1.58659922487775
C            0.36657428681974       -0.37013451200737       -2.89056152425045
C            0.38252085265559        1.93170711054943       -1.89063286592377
N            1.76371779211642        0.16560593559018       -0.95823545462454
C            1.97887084567239        0.53543060441417        0.32791315450273
O            1.09671530015354        0.94115280005075        1.06761780522077
C            3.37556753828061        0.33942494309974        0.76200079483620
N            3.90106618363027        0.60689661172473        1.91700447129080
N            5.20830983318199        0.23865713514208        1.84789984909545
C            5.40342422881357       -0.23429137186434        0.65503877773140
C            6.65613198569445       -0.77432840408900        0.08557623989237
O            4.28235885720625       -0.19667883747863       -0.08339941246942
N           -0.68990050823895       -1.14194667658247        0.05128909404645
C            0.33154007881467       -2.18924095815950       -0.05112586432353
C           -1.70214027302695       -1.42052778324628        0.90216597172185
O           -1.58235278513290       -2.57251781487001        1.52143374046069
C           -2.54351509737812       -3.08365092280884        2.46029273178011
C           -2.76677685282043       -0.49276821723926        1.02329645443437
O           -3.77109451474984       -0.75118025914676        1.85279766926283
H           -4.77722439043395        4.11577023931892        0.37236196571519
H           -4.37834484232042        4.37178506551928       -1.35751948808724
H           -5.62449130951470        3.17298606206263       -0.88270519204818
H           -0.59721767215116       -0.17317620690547       -3.35750617402692
H            1.15854196460772       -0.05765112825836       -3.56866281885944
H            0.45868057139511       -1.43868341795328       -2.71376103376910
H            0.39596863147771        2.50187316509475       -0.96279486796994
H            1.23333081565954        2.22040559780802       -2.50406868673510
H           -0.53847023480616        2.14798810618683       -2.42812684796680
H            2.54292455128197       -0.05970487830609       -1.55377988975306
H            7.43968508042163       -0.75844492473848        0.83968412668956
H            6.96053468081161       -0.17762876515152       -0.77424984410011
H            6.49439907455385       -1.79603624428195       -0.25683875108137
H           -0.16174710119336       -3.11319382958093       -0.34772909281674
H            1.08315363444719       -1.91626655139516       -0.77889844839310
H            0.78940515284314       -2.32057511335811        0.92864125416784
H           -2.63721210542993       -2.41001622959024        3.31279369682200
H           -3.51038758773920       -3.21961400512552        1.97542918951401
H           -2.14279096868625       -4.04487844951674        2.77971511006925
H           -4.45002433201024       -0.02777106960695        1.80506724419948
