47
 energy: -80.224889835035 gnorm: 0.000677692883 xtb: 6.5.1 (579679a)
C           -4.19959882100800        0.62823409280662        2.74654994737468
N           -3.12051081673276        0.07631088940752        1.92876968351406
C           -3.04301627560364        0.20296799111049        0.56169612394576
C           -4.07627020372331        0.95239801517505       -0.29171359117133
C           -5.52810931660965        0.54686069102692       -0.00569752858873
C           -3.87448711190132        2.46906828109939       -0.15053147374754
N           -3.82527593236856        0.62043043564998       -1.69032823587111
N           -2.05132603195328       -0.29602695422980       -0.10531340379157
C           -1.03342816930212       -0.98032070689414        0.49617602581743
C            0.01409761553235       -1.47796873042002       -0.46182662181940
O           -0.17995143623800       -1.48229378851982       -1.67188299836905
N            1.16271239479589       -1.90710987654680        0.09353079558929
C            2.24713361451791       -2.42329124681372       -0.72860115049456
C            3.31623729396790       -1.38638447079628       -1.00939568466880
C            3.02423559950621       -0.02666822951133       -1.06143016472223
C            4.01382886709162        0.89536502512148       -1.36790590820497
C            5.31967641811368        0.48464978275531       -1.63440243061276
C            6.38944965977194        1.48626622353189       -1.94687506148214
F            7.55132013669242        2.57932945070935        0.63790633312523
C            5.60737816436717       -0.87888151406041       -1.57890498156128
C            4.61962123025988       -1.80263077684590       -1.27046579559303
C           -1.07238972811892       -1.17091235477221        1.84584548838978
O           -0.14263853016742       -1.85207514439114        2.55034801624949
C           -2.16739949864378       -0.63943321291402        2.63252245530836
O           -2.22910196996702       -0.80924212938490        3.84966403737105
H           -5.06148686616856       -0.03719687371847        2.72052412894307
H           -3.83909166234741        0.70113143977455        3.77242990943557
H           -4.47605693581222        1.61664656382563        2.39538371658778
H           -5.94160347758510        1.07365143866946        0.84996750839623
H           -6.13155586214559        0.79868710994324       -0.87780451018918
H           -5.60006181797812       -0.52606077012899        0.16655185510703
H           -2.83614691146946        2.72689651178504       -0.35837428936113
H           -4.12830775882808        2.81938148670901        0.84711773579265
H           -4.51426168597742        2.97703512357898       -0.87133714500535
H           -2.85049287449616        0.81370231715404       -1.90585048076919
H           -3.96779928154135       -0.37475805349812       -1.81790800960461
H            1.29368565885069       -1.90022461900989        1.09069600013412
H            2.68287021376986       -3.28812283604247       -0.21969398056380
H            1.81396623211474       -2.76686866927639       -1.67671565220233
H            2.01523574440954        0.31793737855216       -0.86263438907927
H            3.75998120196603        1.95017826668287       -1.40942319257834
H            7.19140132818323        1.03149385372755       -2.52850756327518
H            6.82147131780170        1.87338847469673       -1.00861107790377
H            5.98155757055398        2.33058351374729       -2.50359519315785
H            6.61346906204555       -1.22922344981021       -1.78763714686051
H            4.86293807215780       -2.85932898908067       -1.23919326459302
H           -0.41189941996556       -1.85757096061043        3.48829416484593
