46
 energy: -87.022824254096 gnorm: 0.000586832898 xtb: 6.5.1 (579679a)
C           -3.52727485125053       -0.92105814950734       -2.64127275481566
O           -3.10879537508369        0.43009683908534       -2.77791028048715
C           -3.32760869274184        1.26634992522836       -1.67658294352955
O           -4.35162375638226        2.18629149573803       -1.85585909911846
C           -5.64712023985118        1.80309831241621       -1.40575331912128
C           -2.55316811558485        1.19563992416269       -0.54871535574595
N           -1.51486228103801        0.25228321907123       -0.55809062541381
C           -0.68650050397173        0.14374142458580        0.42325012036263
C            0.38608486940106       -0.93926688576520        0.25952320349156
C            0.26997785581374       -1.56965459211223       -1.13686111602435
C            0.22328115127571       -2.04022452487831        1.31662589196631
N            1.70176980591105       -0.28730128900967        0.35378908280854
C            2.87766390859785       -0.95370863469275        0.32680847973268
O            3.01640085930401       -2.16603028614835        0.40329237457402
C            4.01334103246928       -0.00878773020576        0.20855754189149
N            3.92566128020596        1.28753045996821        0.10670659089960
N            5.20024464780133        1.75922552868631       -0.01483782509695
C            5.98246399690760        0.72532094759637        0.01787873781748
C            7.45859136171813        0.70786745559636       -0.08736732315694
O            5.29765712069539       -0.42144179207302        0.15692648035592
N           -0.72929782805781        0.93391281391707        1.53515090759920
C            0.14452862487622        0.81713888928165        2.69512601544894
C           -1.80476293879546        1.87974854750246        1.70006879772603
O           -1.87550026340472        2.53599720744242        2.77376421644545
C           -2.67282719752152        1.98892564612135        0.63142341460279
O           -3.73550217952325        2.89307536119197        0.77041322156315
H           -4.60622633061510       -0.99525897478687       -2.45691351685858
H           -3.28988328402837       -1.42752009351651       -3.57904839931577
H           -2.99262796330769       -1.41703739976800       -1.82089745218064
H           -6.04069223543701        0.95947371204061       -1.98601774324112
H           -6.30203599845509        2.66636353774299       -1.54442834562348
H           -5.63090589494444        1.53013942535630       -0.34422006131470
H            0.36001943784921       -0.80411930755087       -1.90644872783025
H           -0.69865253461172       -2.05611827360477       -1.23810745427804
H            1.05568988906948       -2.31077096494922       -1.27306658809189
H            0.55158415136040       -1.70908682191224        2.29819830090505
H            0.80536454133591       -2.91804533421686        1.04155510759904
H           -0.82728109961061       -2.32334407536529        1.37273060015664
H            1.73737893793554        0.70172486042719        0.14578641063671
H            7.76315759425417        0.13771631807863       -0.96503613721938
H            7.83122729071542        1.72585785233198       -0.16893032657292
H            7.89152225972153        0.22984741338280        0.79086221717240
H           -0.29918191692552        0.15361524418881        3.44205902020671
H            1.12527042330987        0.44684241881010        2.41225698224541
H            0.25661280230943        1.80842598870825        3.13969128567890
H           -3.65316236169211        3.26391036141073        1.66391739315149
