47
 energy: -79.536837927795 gnorm: 0.000246085419 xtb: 6.5.1 (579679a)
C           -0.85963717725544       -3.84284931937096        2.72348423111160
O           -0.26528686576366       -2.97203147491068        1.74422526527327
C           -0.93517337231683       -1.97464539831057        1.15248467216125
C           -0.27250013913309       -1.18801190173433        0.23704734819039
C            1.12081197933868       -1.35612625511317       -0.13871847698130
O            1.88642640538281       -2.30144739012153        0.33419029271584
N            1.62620871461701       -0.51721474503312       -0.99918495797453
C            3.00836279655144       -0.53878159807912       -1.47539576418995
C            3.83613294700116        0.47663342219038       -0.71680184764014
C            4.08061923070164        0.29529726152093        0.64336692006512
C            4.83637841430964        1.21804697203124        1.35046389699275
C            5.33749409999836        2.31501988069311        0.67086405637178
F            6.06919252991630        3.20941812432676        1.34636683885565
C            5.11187177762714        2.52367831005518       -0.67778714018814
C            4.35081934543294        1.59234391292305       -1.37090942976487
N           -0.89270431833870       -0.15012550585781       -0.39369983281372
C           -2.14833345892782        0.10759209801659       -0.17451129388728
C           -2.73346702355070        1.26286269542233       -0.97387469862564
C           -3.42766168959371        0.69201909345698       -2.22052721401333
C           -1.59571449363226        2.19956793033619       -1.41387218408968
N           -3.69458784037354        2.00741614539138       -0.17143854506259
N           -2.88595655615438       -0.65285452886524        0.68669314049592
C           -4.31534790419052       -0.41672161710473        0.93186653860063
C           -2.33885027895019       -1.68638734828985        1.44336871248995
O           -3.01705398912146       -2.28495981478813        2.26437538356871
H           -1.18340864452856       -3.27168443020677        3.59501612939223
H           -0.06991493686271       -4.53873697641647        3.00339571345018
H           -1.70235992243804       -4.38545840042935        2.29214101291178
H            1.41078652635512       -2.90772152643317        0.94086354059074
H            1.00594451390944        0.21406060551726       -1.33250076349335
H            2.98612726918900       -0.30612984884476       -2.54173373996388
H            3.39688786111482       -1.54931855080753       -1.32988090331888
H            3.67685535459803       -0.57086587938999        1.15213450946235
H            5.03271265917124        1.09069694905145        2.40712243396617
H            5.51877678125905        3.39551808107813       -1.17328807846230
H            4.15927011070423        1.73710851919793       -2.42720905219637
H           -2.71883956704217        0.09984630307086       -2.79736731266800
H           -3.78823674416867        1.51215338896442       -2.83958605307605
H           -4.27279443812868        0.06223575030429       -1.94835962519035
H           -2.01838795885353        3.05411664105317       -1.93960702267919
H           -1.04531193902951        2.55445615040765       -0.54433284063269
H           -0.90742492747335        1.67986553728557       -2.07792430116280
H           -3.19883069638984        2.53497104078172        0.53541259061503
H           -4.17481556924332        2.66836158326381       -0.76765786945496
H           -4.42806998333175        0.34862779775127        1.69812827352744
H           -4.79971225954000       -0.08984516684457        0.01914041430523
H           -4.76129862285241       -1.34999651714946        1.27401303240936
