33
 energy: -58.568174015898 gnorm: 0.000784456508 xtb: 6.5.1 (579679a)
C            3.55020536022148        2.05058208971764       -1.74167137573911
O            2.33199697527125        1.52723419003731       -1.24683846163020
C            2.34036804254682        0.15847764795196       -0.98748533180582
O            3.38521839338262       -0.49349677217880       -1.21470104698872
C            1.14022754036791       -0.35731443957205       -0.49461685952703
N            0.07429391040607        0.47251439620127       -0.26094839315299
C           -1.05274906119561        0.02053114255123        0.14276196046837
C           -2.20048273265813        0.95914755118782        0.46716220500513
C           -2.58490590287988        0.83238592288729        1.94980343457246
C           -3.42088435810989        0.67479108578415       -0.42008493874689
N           -1.77490041980121        2.33603527515462        0.22392562255073
N           -1.28284205298980       -1.36829047531232        0.29624303551125
C           -0.36464577771720       -2.32063869865781        0.00478445984740
O           -0.69213823713773       -3.50149465119760       -0.08059155148139
C            1.08647650636141       -1.83186001369991       -0.11366653835026
C            1.74352588601507       -2.06363573425144        1.27268186925432
O            1.74173542306472       -2.64673702695129       -1.07569334668819
H            3.83345654118815        1.57323879677671       -2.68782317575631
H            4.36556871911705        1.90686432672858       -1.02207270891064
H            3.39903440946536        3.11850140754303       -1.90694213508658
H           -3.36083598674336        1.55791035124383        2.19279198016443
H           -1.71599022593655        1.02478088071824        2.57928053924817
H           -2.95779376960466       -0.16820187568524        2.16414208692560
H           -3.83058080115583       -0.31170953740423       -0.20808048223302
H           -3.14086301814956        0.71912466911509       -1.47256970372461
H           -4.19328631326178        1.42006614529412       -0.23109274790030
H           -0.89909414476763        2.49432606276847        0.71445155259561
H           -1.58315291242273        2.44791678291225       -0.76620159836358
H           -2.23048816396316       -1.68684191226137        0.41773086806296
H            2.78669325376363       -1.75395373069379        1.22974927423615
H            1.69494701951198       -3.12037403242431        1.53484938060926
H            1.22678333007844       -1.47830799024750        2.03161390193138
H            2.58510156773253       -2.19157283403123       -1.29089077489802
