47
 energy: -79.483981983494 gnorm: 0.000362520341 xtb: 6.5.1 (579679a)
C           -4.22364626495161       -0.67876683014996       -2.16690371795327
N           -2.98238781392489       -0.49999227301351       -1.40592552611511
C           -2.95096583317753       -0.11448036544630       -0.08945362918568
C           -4.21620344839678        0.12379734901839        0.72444846183262
C           -4.73504933172698       -1.23419390770014        1.22249645859811
C           -3.87681439267513        1.01316010034106        1.93339883009485
N           -5.24070065300791        0.76975235389102       -0.08432298978169
N           -1.83496726910245        0.01370477997227        0.56010398319541
C           -0.63060061386264       -0.22895371721017       -0.03124075146554
C            0.54738600703097       -0.02895138738867        0.85501258622852
O            0.52061107075752        0.63492396697870        1.87268116530612
N            1.69064216228332       -0.68603353419590        0.45617865641042
C            2.89476494707525       -0.52909106434591        1.17290780180922
C            3.85003660590814        0.60345602743446        0.47648869433545
C            2.99419804794926        1.87526376116810        0.33211193085022
C            4.23993742421810        0.02225370822271       -0.81308708674218
C            5.48873828312275       -0.47793875043784       -1.04121713146760
C            6.45346869168801       -0.35522726993785       -0.03368023202793
F            7.65064091528642       -0.83390515105696       -0.25417409036991
C            6.20342850206965        0.27754806750509        1.19023836623971
C            4.95544928389841        0.77744164283465        1.42544490921211
C           -0.58793523457223       -0.57580472839866       -1.35071154457645
O            0.54969879245278       -0.79456701767341       -2.03884252277468
C           -1.81568884898334       -0.71469970379185       -2.11440833589825
O           -1.79716178954271       -1.02120191454168       -3.30275729380918
H           -4.61005554829875        0.29303691622569       -2.46958856509122
H           -3.99498309683502       -1.27570749333543       -3.04937304567364
H           -4.96463165784424       -1.18734143265701       -1.55853894899824
H           -5.59164505494505       -1.07901590386858        1.87692814726788
H           -5.04255227146650       -1.86502537240566        0.39040466729633
H           -3.95196217253106       -1.74623860603027        1.78045993691950
H           -4.78690927315446        1.22035677588211        2.49340048264840
H           -3.44544234620257        1.95418372099572        1.59571492798951
H           -3.16162110525965        0.51312032584979        2.58508486342273
H           -6.12042425386482        0.75713018647180        0.41271925675574
H           -4.98769081524042        1.73462696688829       -0.25060664231891
H            1.70521723585653       -1.21287259683117       -0.40222522533039
H            2.67715941343928       -0.17127445460325        2.18082368429967
H            3.46131559583895       -1.45724656061361        1.19325089186625
H            2.18069241426215        1.68698496857246       -0.36526967195917
H            3.61660335424838        2.68009088346639       -0.05407618316615
H            2.58438101836679        2.16429656680545        1.29848905449844
H            3.47304178958299       -0.04800482065167       -1.57580741069308
H            5.75458297575756       -0.94531476994456       -1.98127107526189
H            7.00530652710598        0.37951776174741        1.91111263913780
H            4.73992181290568        1.29029370391133        2.35610208935506
H            0.31281721844962       -1.02308890795453       -2.96072086491072
