43
 energy: -83.873883024291 gnorm: 0.000594129747 xtb: 6.5.1 (579679a)
C           -6.09849493385993        0.41605693705719       -0.52190490047223
O           -5.03977019595670       -0.25568038661202        0.15550421388070
C           -3.80235402843924       -0.09660339895181       -0.35847023741057
O           -3.60383434049048        0.56026631072008       -1.36383506542518
C           -2.71179724662629       -0.68832577870302        0.54309765392415
C           -3.16903278588254       -1.98461685486512        1.22076335439096
N           -1.53479038969933       -0.97375961871915       -0.27445030461556
C           -0.67829371337664       -0.04026282543302       -0.45368755203031
C            0.48995706182228       -0.29888466931020       -1.39706458603454
C            0.54266326499154       -1.77813501277839       -1.78920337673716
C            0.33098399689460        0.59223016797046       -2.63568707242519
N            1.71826003781846        0.05879071082978       -0.67133109625926
C            2.95328448218120       -0.02829585447106       -1.19423869890694
O            3.22639593146095       -0.31040333129703       -2.35044925447184
C            3.98682784757978        0.27161460182341       -0.16502801533549
N            3.76625137396991        0.56839777180401        1.08029040853804
N            4.98535612065129        0.74467226413867        1.66537228092356
C            5.87133582062983        0.54082479985547        0.73983983236197
C            7.34393112929785        0.59809133667509        0.87158890707037
O            5.30536352032176        0.23846228269491       -0.43838827197840
N           -0.74002487483568        1.19698570393070        0.10422316160167
C           -1.52515401577867        1.40076110996904        1.31493005971557
O           -1.22706649297607        2.39196304867530        2.03777783790679
C           -2.45491322325991        0.42947435386485        1.52010037575044
O           -3.29499191189851        0.46214961615880        2.66073847955745
H           -5.92306891720887        1.49584535851720       -0.53586940900979
H           -6.18175937165968        0.05598367450870       -1.55157346346353
H           -7.01498696318975        0.19467445037301        0.02230144909817
H           -3.42669758958846       -2.72955712603456        0.46858505425573
H           -4.03608980476483       -1.79909555401132        1.85247216423722
H           -2.35836458461850       -2.37280427802945        1.83651740103606
H            0.68795742562067       -2.39248566119302       -0.90159514298582
H           -0.39941365770898       -2.05993823468601       -2.25777269751102
H            1.35781481843320       -1.95869869444913       -2.48737320885680
H           -0.62757145337792        0.37925184090371       -3.10833647315669
H            1.12817052253694        0.40027720495926       -3.35115630356065
H            0.35827961433262        1.64236943949118       -2.34903173169917
H            1.64413427975722        0.24351562597231        0.31973957674499
H            7.76993035564057       -0.39251129424564        0.71300114511675
H            7.60885607906376        0.94908599614774        1.86549209538212
H            7.76082233520540        1.26809801314015        0.12110794043539
H            0.04955940904643        1.81483856249932        0.01142949301560
H           -3.03766293206065        1.24537739111608        3.16747997739964
