42
 energy: -83.647657887889 gnorm: 0.000421209027 xtb: 6.5.1 (579679a)
C           -5.39298508786253       -2.45670403955307        1.33216953493910
O           -4.23042413919731       -1.82101266391582        0.83901439378263
C           -4.14825537405403       -0.45517269062286        1.08781102392579
O           -5.07223784002094        0.09747354127670        1.68759056262777
C           -2.95675739746399        0.13148312763788        0.56779399740987
C           -2.62699852655513        1.49191940004956        0.73898756388361
O           -3.31313109011065        2.37052834730085        1.29766760514957
C           -1.24496111738868        1.90215732635526        0.12989178512448
C           -1.23973864740080        3.39529182734442       -0.21404764210629
O           -0.17839861649362        1.61164776339199        1.02100769279170
N           -1.08433802825416        1.12339580366278       -1.09001551650905
C           -1.11931215910854       -0.25494510183885       -0.78187874170194
C            0.11854664136929       -1.03826630899375       -1.18716542429519
C            0.35668350060297       -0.96905081098501       -2.70429566413219
C           -0.02718934010604       -2.50197123295049       -0.74610881531651
N            1.16453759030893       -0.33600624632528       -0.42612944405177
C            2.39931220562610       -0.76561388430616       -0.51905985929184
O            2.88615496894524       -1.70326364591269       -1.18853568971149
C            3.30771512036422        0.05617231486665        0.36837488935766
N            2.95532964529398        0.97410572320642        1.21801140158160
N            4.10375126682363        1.43027876038257        1.81884323425607
C            5.07675379392248        0.75871017712256        1.29722865631237
C            6.52156865803225        0.87677262518811        1.60906229994015
O            4.65051555974458       -0.12504081137635        0.37954671556253
N           -2.01419229154560       -0.75093399795335       -0.02514304292735
H           -5.45677307455086       -2.37789774760757        2.42425729009028
H           -5.33201163747308       -3.50811164369403        1.04995371730073
H           -6.29964349152323       -2.01738383773687        0.89973751160569
H           -0.26524070614180        3.68059595486380       -0.60515273423514
H           -1.44798345768436        3.97558747635460        0.68441306270407
H           -2.00331639249136        3.60754891795639       -0.96044206758583
H           -0.21511616884314        1.37127148144946       -1.55219468512606
H            1.23388012087698       -1.55462404518699       -2.97694688340077
H           -0.50954323438530       -1.36947355212170       -3.23244361213952
H            0.51561838845163        0.05986001913389       -3.02505699839981
H           -0.16584800468803       -2.55814339214069        0.33467775102446
H           -0.89934787440865       -2.94346404668351       -1.23046757429830
H            0.85610424127319       -3.07571919778255       -1.02310717403875
H            0.44072633663797        0.95572934743393        0.56432613254580
H            6.66796601540709        1.63443245560956        2.37480402958700
H            7.07858097579960        1.15488293113478        0.71485418635617
H            6.91000066823865       -0.07704742407421        1.96468053141340
