47
 energy: -79.540547760392 gnorm: 0.000387375531 xtb: 6.5.1 (579679a)
C           -3.45463785583900       -2.15733654409301        1.62891680571764
N           -2.91046321639851       -1.41320337058912        0.47490881604869
C           -3.28248691314937        0.04460404391781        0.32258885299802
C           -3.32930649373147        0.70850140024042        1.70078891346936
C           -4.63739925501072        0.07084823494946       -0.38297489523431
C           -2.10183185321745        0.62272316968675       -0.46366894511261
N           -1.03036769651554       -0.09867057574961       -0.40273427437967
C            0.14402629012512        0.25880798396962       -1.00658892657109
C            1.22269529043193       -0.76654624263569       -0.81452669143005
O            0.99732768085959       -1.78842661121903       -0.17531760649452
N            2.40381112059965       -0.49788084172840       -1.38972128576827
C            3.52095399630753       -1.43464468183964       -1.28334079153942
C            4.41347443190107       -1.08062839773074       -0.11315904553873
C            3.97531127260821       -1.31114197077380        1.19000471725356
C            4.77813453256488       -0.98300333845198        2.27249718653602
C            6.01987883993161       -0.42549585137844        2.02342552075611
F            6.80309074244463       -0.10547783512632        3.06601004557408
C            6.48685496560888       -0.18557972808525        0.74424471696237
C            5.66845473465441       -0.51724594627378       -0.32749776197703
C            0.18541868431721        1.43632389174264       -1.69065349331206
O            1.27047608886549        1.90091691123023       -2.32766288059475
C           -0.99122552178128        2.28925135770506       -1.76955546430710
O           -0.97444556117135        3.35007220671483       -2.37772041687086
N           -2.12651527752266        1.82387216408473       -1.10870718583300
C           -3.30044754850134        2.69575206130282       -1.18996428940284
H           -4.53539653575036       -2.04655200232096        1.65139486605129
H           -3.18962634007519       -3.20291809661231        1.48847761632347
H           -3.01023518176922       -1.77997907347773        2.54524294238115
H           -1.86591022519265       -1.41985975414050        0.48795053447942
H           -3.18288109261676       -1.89212771923166       -0.37918909446484
H           -2.40236650845352        0.52150499104352        2.24078290283705
H           -3.44809549056394        1.78340900956180        1.57995455050652
H           -4.17219422576037        0.33432303697275        2.27787505089904
H           -5.11585630349258        1.04048999409734       -0.27512703520285
H           -5.29244648763562       -0.67062322137501        0.07235055456975
H           -4.52664972581978       -0.16232454209425       -1.44064057357079
H            2.56100260592239        0.36886103206323       -1.87698337477661
H            3.10247703710808       -2.43758780568576       -1.15108161709436
H            4.08076471790841       -1.39837958161832       -2.22076571062887
H            2.99888884803423       -1.74965113216619        1.35836461226609
H            4.44997922574602       -1.15522606435389        3.28935515675675
H            7.46492878257986        0.25181121178789        0.59085127958063
H            6.01404940866190       -0.33596405503265       -1.33845004676272
H            1.05291982069550        2.75757864112205       -2.74414034027489
H           -3.99632598223713        2.30467134952027       -1.93020880852093
H           -3.77903924277238        2.76951022017834       -0.21875553250658
H           -2.95876958289860        3.68264207189218       -1.50172155379731
