46
 energy: -87.014939547479 gnorm: 0.000701855927 xtb: 6.5.1 (579679a)
C           -2.94431812735537       -2.64179189318855       -2.32407673562498
O           -2.96353413033268       -1.36812173328490       -1.69406462773332
C           -1.74558536069913       -0.79932753641746       -1.47004994541492
O           -0.71138773517422       -1.37604782438213       -1.79706112380941
C           -1.79946775887435        0.50817980701545       -0.86231791765100
C           -2.86731197124160        1.13521039784966       -0.26215273956633
O           -4.13098309422507        0.63085695617608       -0.22751435268475
C           -2.66597142259259        2.32981429870045        0.53325663708176
O           -3.63366519645416        3.04396318237611        0.90941769426616
N           -1.38565801415436        2.52629730057912        0.95182156781715
C           -1.16763543470180        3.60969999838897        1.90841248754450
C           -0.27041268349389        1.84519192543388        0.41106934565783
C            0.46010325070873        0.88446229992072        1.37295978855440
C            1.46405103402947        1.66010814907192        2.24390037922321
C           -0.49556415423355        0.07170397060622        2.27134667835785
N            1.21183020547603       -0.04354963529401        0.51953434950592
C            2.01378667640111       -1.01902783998131        0.94438302602796
O            2.27603024496767       -1.29365464155187        2.11099681738216
C            2.61670536672210       -1.77039429113641       -0.19858628952165
N            2.47036195522209       -1.51951634861932       -1.46285081076674
N            3.21376647802701       -2.44398973915488       -2.13891296629337
C            3.76805535006769       -3.19764108780026       -1.24174626936073
C            4.68273223825985       -4.34083310541307       -1.46312825206700
O            3.43417328758977       -2.82490738236212        0.00304026720913
N           -0.55707485449986        1.24629191551052       -0.87635985219785
C           -0.53431909675825        2.25311490759877       -1.95294712951933
H           -3.98109523160445       -2.95563030201941       -2.44029259483939
H           -2.46422688652698       -2.58133156839856       -3.30631625654785
H           -2.40375717208886       -3.37079309955706       -1.71145540900601
H           -4.67714776097788        1.27786631115174        0.25732081692002
H           -1.92845565521213        4.37744038317996        1.75222370940311
H           -1.24566879249582        3.24457800739448        2.93501786719499
H           -0.18048970397220        4.03871954030327        1.74568929681082
H            2.09861127413019        2.27572221407686        1.60744901177174
H            0.93386759346598        2.30535567380491        2.94036432957458
H            2.08925867347847        0.97896619082635        2.82013014383930
H           -1.14017933103602       -0.55851770572189        1.65832230498393
H            0.06851760440874       -0.55787249312019        2.95898130277869
H           -1.11693383105585        0.75097836870545        2.85232314660776
H            1.01444230569890        0.03418558545384       -0.48074835742210
H            4.41528679197208       -5.16762099057058       -0.80775844452898
H            4.62729896026816       -4.65909763401007       -2.50097829146344
H            5.70768200135548       -4.04717021276207       -1.23671310588658
H           -0.60431658184254        1.74874636489901       -2.91830889633790
H            0.41110120399079        2.79192014418291       -1.88948192004648
H           -1.36250151464785        2.96746217153872       -1.86125268022479
