42
 energy: -83.668462192008 gnorm: 0.000330685976 xtb: 6.5.1 (579679a)
C            6.22538837982482        1.17051836714312       -0.46907609818261
O            4.92317613524379        0.61870193589520       -0.35865075160315
C            4.66745090596506       -0.45636191135310       -1.17269864874275
O            5.53221982457218       -0.86183483922403       -1.93653707442713
C            3.33261555005149       -0.99261796940719       -0.98791297045096
N            2.55229307128906       -0.33257640065998       -0.05353971446959
C            1.36485949092247       -0.73958215948705        0.20599009342698
C            0.52476781126796       -0.06916535734112        1.27825266601011
C            0.98017917761743        1.38784373805510        1.44835426647934
C            0.74103976089300       -0.86014813406623        2.58075091971365
N           -0.87389238844917       -0.15155952830527        0.86022797493789
C           -1.88162108405198        0.46937427841923        1.62964699633917
O           -1.71531830696000        0.75629109534548        2.83405603521258
C           -3.08407325458403        0.67376105145841        0.92068132233825
N           -4.20910593813405        1.20085505531798        1.38585989059365
N           -5.11864938752447        1.26285967503404        0.46175697841664
C           -4.53833213990302        0.71023946834416       -0.77350654557091
C           -4.53896623803544        1.78391203119744       -1.87434631157226
C           -5.34269259224805       -0.52415877093199       -1.21534947972492
O           -3.20659261374965        0.33925420633782       -0.44535382288755
N            0.82855684053210       -1.85418968539883       -0.40554575482716
C            1.48180376939082       -2.59813425904123       -1.34920093568401
O            0.93251293328358       -3.58341806580130       -1.84239768583910
C            2.87666835037427       -2.13194491181774       -1.70276781142482
O            3.51832591919995       -2.76388898309665       -2.56410903000951
H            6.98720656319229        0.42532898876442       -0.21649190038448
H            6.28232171933859        2.00274425723118        0.23157579053955
H            6.41245475421725        1.53213595642656       -1.48569164922541
H            2.04869232811310        1.41141330281583        1.66094884493242
H            0.79467640681695        1.94685414738049        0.53162960190780
H            0.44274020729387        1.85919076565507        2.26956209148105
H            1.80620078162412       -0.89863398183712        2.80786793578648
H            0.36861451613754       -1.87696156357919        2.46065363955928
H            0.22060921172628       -0.38885858431635        3.41232611430477
H           -1.00406703301149        0.00667152866421       -0.13232493814018
H           -3.97130991373461        2.64923136867395       -1.53563132906465
H           -5.56135252028438        2.09086897730040       -2.08504844769850
H           -4.08488036163693        1.39368143395446       -2.78370335991705
H           -5.32650949308559       -1.26833544076753       -0.42051769317680
H           -6.37375950348598       -0.23767162602762       -1.41226038221409
H           -4.90974274575008       -0.95548116046544       -2.11626156072901
H           -0.10451089426217       -2.14620929648770       -0.15305526601354
