42
 energy: -82.985652649284 gnorm: 0.000897590087 xtb: 6.5.1 (579679a)
C            6.60543561212663       -1.59073369107922       -0.06697249277619
O            5.43890343219789       -0.96942895262766        0.45692285225391
C            4.45343468002429       -0.71149775001190       -0.43350655978840
O            4.58533235250770       -0.99530005209747       -1.61682029312585
C            3.26605130327029       -0.08401582312237        0.13887223221288
N            2.28871320050350        0.16703776574831       -0.80268193275624
C            1.18969371625288        0.72782226084237       -0.46386996601341
C            0.13475685930679        1.05743002558163       -1.49755442707400
C            0.15666558313349        2.55668103941988       -1.80714945343048
C            0.34954932622399        0.22808229179085       -2.76487811149748
N           -1.19338444939885        0.75760799406583       -0.92586976221118
C           -1.51090793800141       -0.44352930210258       -0.43609933083768
O           -0.80203051581302       -1.43241347226362       -0.39784844280565
C           -2.89916076384475       -0.47613475763192        0.12645490073671
O           -3.67848474077926        0.59805884770823        0.19272447429082
C           -4.82179344856955        0.19524555230287        0.77580211090343
C           -5.91785487025914        1.14918943490195        1.01355701323554
N           -4.77803950326335       -1.07013077691895        1.06763743847224
N           -3.56229655573342       -1.48367317096542        0.65595118768384
C           -3.20453537611492       -2.87749864980664        0.81866630613193
N            0.92545812368798        1.10728332237435        0.83511683219788
C            1.79121156541101        0.89272683390876        1.88007248014141
O            1.47302081851794        1.23404161030628        3.01431038230645
C            3.10748330546706        0.23969891258643        1.51460617455498
O            3.93590947959800        0.03471570027051        2.41735819732748
H            6.36907549861185       -2.58562157998777       -0.45717050697512
H            7.31757166062977       -1.67483008210025        0.75325805596258
H            7.03651913583110       -0.98852691703523       -0.87298026360724
H           -0.61785068208435        2.80157770930054       -2.53115465061401
H           -0.01486683731816        3.13048671357905       -0.89802557778312
H            1.12663280174474        2.82998707698912       -2.22054209542675
H           -0.42359267916587        0.45661241988231       -3.49499222448236
H            0.32048912854211       -0.83492659379275       -2.53011269170133
H            1.32696383349235        0.46818202435791       -3.18225415546297
H           -1.88828618196272        1.48268785810535       -0.93178268185594
H           -6.77819136239528        0.62974774061632        1.42877215286464
H           -6.19016412784715        1.63653303991746        0.07692627110765
H           -5.58350277352852        1.92335958419371        1.70650879813267
H           -3.25602341862770       -3.12314396129462        1.87842722937166
H           -2.19930936547561       -3.03118902986698        0.43327044969133
H           -3.92652145473325       -3.47899091677698        0.26881517623307
H            0.04792662785523        1.54679072071929        1.04892790442826
