29
 energy: -54.512643041327 gnorm: 0.000658815151 xtb: 6.5.1 (579679a)
C            3.81415860300406        2.16924669414823       -0.68353572570025
O            2.60375032893835        1.43921416199000       -0.46097211887572
C            2.73083246309906        0.14173788643880       -0.22206929775238
O            3.81068861718416       -0.42403149622678       -0.18842431851876
C            1.44546063450468       -0.56145397204966       -0.00603196327696
N            0.29994576523767        0.18983851510319       -0.06517252871963
C           -0.84204996924055       -0.38954226362121        0.10744271638901
C           -2.10804864622967        0.44844003544673        0.00557491312845
C           -2.58067283769390        0.41924469052329       -1.45657912756664
C           -3.21126931525810       -0.05392563798173        0.93969697129163
N           -1.79394749785594        1.82605915890802        0.35934673116957
N           -0.93858455474525       -1.73173392711983        0.33301795697360
C            0.13800201751180       -2.59347389538480        0.42885615039603
O           -0.02776705584248       -3.78190937213201        0.64655126456510
C            1.42188027382727       -1.91397832998296        0.23662704287910
O            2.51141296548063       -2.68259235729546        0.30763867712669
H            4.46421915904108        2.09095695896484        0.19094811900474
H            4.33462826426274        1.77135963249866       -1.55781274622644
H            3.52708410204642        3.20501138880671       -0.85159757777659
H           -1.79263599649607        0.79339703172570       -2.10919155737532
H           -2.83400468513006       -0.59727175944698       -1.75331482705517
H           -3.45928343050325        1.05384321323242       -1.56402670120159
H           -4.02706639632085        0.66794464941441        0.94483886083280
H           -2.83217877106207       -0.16113747910283        1.95508447780967
H           -3.60288724798306       -1.01245888827702        0.60300985637796
H           -0.97724255468905        2.11819188206240       -0.16880440990074
H           -1.55017388776697        1.86786751482870        1.34056401742190
H           -1.84522717325402       -2.15813849033543        0.45270735042921
H            3.32097782593376       -2.14070254513534        0.15947979415085
