43
 energy: -83.887272245917 gnorm: 0.000889749504 xtb: 6.5.1 (579679a)
C            3.85921139561440        3.85118860705732        0.35853991975986
O            3.74270961765719        2.43355005937503        0.31181673108641
C            2.49334261558316        1.93963812724169        0.27330591951656
O            1.52456903749228        2.67702168012819        0.27660581135376
C            2.41276598937647        0.45219318966429        0.22285720987362
C            3.52238816708590       -0.38512837098736        0.13415273032595
O            4.84097940067633        0.06863324639226        0.18801240649980
C            3.35102240795717       -1.77711173177107       -0.10380960790236
O            4.29245683364597       -2.57744803685297       -0.25715807646436
N            2.03608892995037       -2.19874287017488       -0.26640145804882
C            0.94445181699341       -1.42176173763379        0.31160491278192
C            0.75904380642793       -1.81766208846841        1.79709931649463
C           -0.35693635249383       -1.70215545125858       -0.51472478223829
C           -0.90793097551759       -3.11423281084749       -0.30857525824113
C           -0.07378406395792       -1.44589895375448       -2.00127858322773
N           -1.31844229072295       -0.70162873953267       -0.04364822066748
C           -2.60554366922039       -0.62515889085772       -0.39610609518024
O           -3.23454966213349       -1.44916118337141       -1.04669597417812
C           -3.22789558594540        0.62298516795354        0.13841889939855
N           -2.61869001547237        1.57098616495414        0.78227193608322
N           -3.55720947309122        2.52053707034872        1.06843074183221
C           -4.67748109567421        2.08966895707948        0.57916447222169
C           -5.99747624989726        2.75680595977684        0.62890551418424
O           -4.53774855216999        0.89814904285331       -0.02254009102741
N            1.15992080543305        0.00455038447012        0.24166819995997
H            4.92305228837737        4.08287550650295        0.37882420903607
H            3.39550186274769        4.30408522786778       -0.52299448949562
H            3.37439819536746        4.24628103343103        1.25640038855211
H            5.39796767046602       -0.71597995030104        0.05321503165869
H            1.92364791791150       -3.19881248961606       -0.19246684639042
H            1.62176340777923       -1.47599027662603        2.36729661686752
H           -0.13725591939246       -1.34731854420106        2.19788241220753
H            0.67820316748739       -2.89728512036431        1.90334171821562
H           -1.70520505827166       -3.31916726923194       -1.02180183545072
H           -0.11708979016291       -3.84670250798349       -0.46111008820879
H           -1.30875925554184       -3.23143280285862        0.69679447378274
H            0.66974309347874       -2.15671575891471       -2.35943295883899
H           -0.98543022977267       -1.55967262978930       -2.58599176222872
H            0.31258918044384       -0.43434866505787       -2.13109784228767
H           -0.87749312326124        0.12033616176957        0.37416067636367
H           -6.71963350614335        2.11923923479487        1.13930305226538
H           -6.36352507434235        2.93900766509161       -0.38168203556529
H           -5.90773866477005        3.70178239370271        1.15981570532510
