47
 energy: -80.182831252563 gnorm: 0.000970329296 xtb: 6.5.1 (579679a)
C           -3.91001259785721        2.39731303613246       -1.02208543193152
N           -2.80688559961514        1.50429168426010       -0.67625219590264
C           -2.94908012749103        0.19566236111723       -0.26581948552050
C           -4.31557112419858       -0.47310291205479       -0.14798284533588
C           -4.12178688823247       -1.97815837046357        0.10306755275430
C           -5.09379310764305        0.13662103800302        1.02641975424868
N           -5.08389329129131       -0.28093565801218       -1.37938725984621
N           -1.93105257725575       -0.52223565870871        0.07774337702296
C           -0.64497501137917       -0.04571433834066        0.04530390118618
C            0.37285011779985       -1.03295591451942        0.49897785527802
O            0.04339220689502       -2.13084517147636        0.96080930796506
N            1.66706979264667       -0.67395597977500        0.39767457784819
C            2.71506724943001       -1.62047949925067        0.76438395069181
C            4.11167598731384       -0.99985389371618        0.50079641261929
C            5.14979261474969       -2.09250021507849        0.90314436350923
C            4.26309614052275       -0.66518267369651       -0.96881719447539
C            4.76439450651579        0.52882643879574       -1.40612705729430
C            5.07484459315436        1.53940103503564       -0.49501842365906
F            5.57365536338571        2.73720398027791       -0.96486976443703
C            4.80612590283594        1.40422677809659        0.86842023482952
C            4.30872443092023        0.23119224037096        1.36097625858596
C           -0.44061457506755        1.25333493613591       -0.36935052017925
O            0.77987644276884        1.85525988234422       -0.43954068762932
C           -1.54416242432503        2.09125677162701       -0.73658404042621
O           -1.39542810459358        3.27231383422049       -1.08442102271544
H           -4.76158349307251        1.82436283194551       -1.37737702093750
H           -3.57071496538162        3.07210201058814       -1.80904659962888
H           -4.19323979632590        2.98959533469311       -0.15000960068379
H           -5.09399349824512       -2.46691495552860        0.12658990212399
H           -3.61484706551651       -2.14560170510628        1.05311657562799
H           -3.52463718091528       -2.41881808399575       -0.69443798710171
H           -4.50102129768563        0.07851628951938        1.93904366951535
H           -6.02120263625360       -0.41443580271444        1.17617927298858
H           -5.34195410191694        1.17823656068672        0.83412389976218
H           -4.68759514724448       -0.83955693163024       -2.12428752698287
H           -6.03031663324365       -0.59944339244695       -1.22905186280654
H            1.95586337184187        0.18218368494602       -0.05382990774757
H            2.60515931999076       -1.88285916210094        1.82518282776829
H            2.58863653745178       -2.54269815045070        0.18023939583284
H            5.04200198339128       -2.35343254425624        1.95666227773839
H            5.01433656329580       -2.99035164092975        0.29911558797435
H            6.15663345512231       -1.71032373046222        0.73946509342422
H            4.00215312767780       -1.44572076757901       -1.67657983455202
H            4.90354864780705        0.71025628171759       -2.46769732633815
H            4.97688527494948        2.24927062081021        1.52887665214093
H            4.08012388651626        0.12952084849325        2.41738149796778
H            0.62245372776785        2.76512567247726       -0.75569760327269
