42
 energy: -83.649857148279 gnorm: 0.000620756424 xtb: 6.5.1 (579679a)
C            7.06167863806959        0.04460059909577       -1.10882849124409
O            5.75293645926081        0.58698137796972       -1.16100314573218
C            4.77581716559310       -0.16977270092683       -0.58613690053971
O            5.05906943058257       -1.24281597244595       -0.05997946738682
C            3.44217815869808        0.39728229347503       -0.66014222924872
N            2.48217854395113       -0.40830780463569       -0.06260582909551
C            1.25030629539096       -0.04840731040359       -0.05831808774915
C            0.18097783746963       -0.89843235388889        0.63195271865996
C            0.36947017177479       -2.35828639804372        0.18029551530097
C            0.45300499295543       -0.79989871957799        2.14078734411219
N           -1.11875917822570       -0.37731474725197        0.20265559363291
C           -2.31449940164603       -0.32145000958141        1.16641419673813
C           -2.98345689319075       -1.73749401970616        1.18124520144641
O           -2.08373130846487        0.18717903458919        2.33783929967724
C           -3.27212103475801        0.61380094197005        0.33677100000793
N           -2.93911694235132        1.70794003309943       -0.27374145639242
N           -4.10752337706375        2.28987216172207       -0.72855613090479
C           -5.06537431796983        1.51115820388598       -0.35708587170802
C           -6.51822081491296        1.67915281856570       -0.60604757344293
O           -4.61485279097607        0.43637518106399        0.32214289485933
N            0.84091623308286        1.13670048204772       -0.61907159124057
C            1.66800123335039        2.02503873831830       -1.23597413651351
O            1.21320728595785        3.06477107671519       -1.72213362885340
C            3.13011396634702        1.64099347290510       -1.26808947566315
O            3.93874418090113        2.42031310802650       -1.81695708559592
H            7.72385300248848        0.75461616368866       -1.60315069007378
H            7.38467671891172       -0.09938340945016       -0.07252787100483
H            7.10515857148938       -0.91979903773949       -1.62560938235042
H           -0.29941171244733       -3.01821533891348        0.72944422811314
H            1.39956517655330       -2.66778409777337        0.36201576736011
H            0.16017074931539       -2.45742045195513       -0.88443142776532
H           -0.23701422146637       -1.42426344916558        2.70494598277199
H            1.47182771061181       -1.14382297950512        2.32940043637022
H            0.35963738507938        0.22891749266767        2.48797345898323
H           -1.42174304350543       -0.90541591245125       -0.60935664831918
H           -3.92496896337375       -1.66644738805228        1.72368112317430
H           -2.33226591851011       -2.43521286516730        1.70372333483936
H           -3.17604200477150       -2.10256133962642        0.17428996684357
H           -6.89179117945358        0.85881783106900       -1.21911749635021
H           -6.69436000419006        2.62081749111473       -1.12102981038597
H           -7.06676935249987        1.67247787989198        0.33539637395836
H           -0.16146744808076        1.32469792437954       -0.60163000929682
