42
 energy: -83.615035104425 gnorm: 0.000384800272 xtb: 6.5.1 (579679a)
C           -4.54137697986463       -0.26679016107385       -1.25642729078389
O           -4.26539181663121        0.87846070081158       -0.51339590364321
C           -3.71152602241767        0.69789470883031        0.94990949473253
C           -4.87600171943743       -0.03689536858821        1.69819717719167
O           -3.43377176791135        1.86090403598546        1.44234722918293
C           -2.45014749773462       -0.23211136093666        0.77687778763958
N           -1.59556594786347        0.21467974754156       -0.19073625166486
C           -0.46212488527188       -0.36057222533290       -0.40698516108912
C            0.45681334913723        0.12134039575408       -1.51083561572499
C            0.62242096810355       -0.96761759904069       -2.58190694758574
C           -0.11778260582970        1.40393611729204       -2.12015762922893
N            1.78034383724923        0.39475791569336       -0.90872225671217
C            2.82391228415695        0.88349228327874       -1.59321706505841
O            2.81373786321367        1.24343708690682       -2.76337060857955
C            4.06404527232216        0.98584370136633       -0.77374342525555
N            5.18932595495304        1.53383796065945       -1.11988544639194
N            6.03692086713434        1.39715682757164       -0.05893006496981
C            5.37754885139124        0.77300474019096        0.86653383157311
C            5.86026437825745        0.37518856178937        2.20714455698408
O            4.12263638675203        0.48741375198629        0.48093379062930
N           -0.05924831593317       -1.44803606184946        0.34225673294016
C           -0.81761238822377       -1.98252009345993        1.35984264617391
O           -0.37013953236977       -2.96413729919710        1.97757814544917
C           -2.12931778475833       -1.31501902372055        1.61842195039337
O           -2.85473801875577       -1.77273823272685        2.55533038344697
H           -4.57138538983286        0.00528441752303       -2.32124180669491
H           -5.51935008239062       -0.71742396771023       -1.00744047610161
H           -3.77278919131008       -1.05167370975223       -1.13842541956743
H           -4.64462304249396       -0.05635044557262        2.76219418045978
H           -5.03181334140227       -1.05549016850330        1.34794455061893
H           -5.78949985219550        0.54133769659847        1.55273873832048
H           -0.35494732653348       -1.23915609912587       -2.97838869646001
H            1.08551410975999       -1.85180847867591       -2.14785427785133
H            1.24814076715177       -0.60968931582666       -3.39766771857815
H            0.47064024191220        1.72712405490840       -2.97557556008823
H           -0.13321289013409        2.19734347101877       -1.37290035068940
H           -1.14022420415912        1.21101396412341       -2.44510038542924
H            1.94091644188150        0.07688751149893        0.03482589766333
H            6.88413893429808        0.71485588042077        2.33992193224077
H            5.22720636631816        0.81155264092727        2.97952274961495
H            5.82131007255163       -0.70907279409269        2.31043033823171
H            0.81675565686591       -1.89964476749755        0.15064724465368
