43
 energy: -83.129321470984 gnorm: 0.000368043430 xtb: 6.5.1 (579679a)
C           -6.04087492017768       -3.10010841484685        1.12251771116682
C           -5.38354832930299       -2.27487840152062        0.08648942931736
N           -5.68772562358428       -2.18038601591084       -1.17134165895437
N           -4.81483215093687       -1.29403181809271       -1.72195804933404
C           -4.02900690407387       -0.90043515828086       -0.76865845403021
C           -2.91040384774728        0.06278088807210       -0.85193032749482
O           -2.61033045451812        0.61534338836280       -1.90379313729634
N           -2.27709314267335        0.22897686655615        0.32490312575057
C           -1.20439554017587        1.19138241245105        0.60291678192304
C           -1.59465950025383        2.59181633591478        0.10857700030208
C           -1.00277321205437        1.20406339821729        2.11917239616107
C            0.08402748727435        0.75458608206284       -0.07557119061559
N            1.15237168066197        0.62075041661513        0.63694524117322
C            2.34403192728322        0.27688396180423        0.03521808630271
C            3.40554428736483        0.10588579517458        0.99965033262360
O            3.38355152515555        0.09086001050957        2.18024502128983
O            4.74579486720777       -0.16851520186064        0.35266380364169
C            5.63093471972339       -0.93230684843247        1.22264332024883
C            5.38555424476001        1.00652004472948       -0.22837003103916
C            2.40343119968914        0.06935926672549       -1.32329883900390
O            3.49631966606310       -0.26348742165158       -1.98914932668131
C            1.18427730712304        0.20985700955712       -2.13775066523564
O            1.19938174272048        0.02023716124259       -3.33982837332350
N            0.07707888327856        0.56634938744984       -1.42525552116642
O           -4.34126446069517       -1.49031882735903        0.40598850542811
H           -6.55164218209370       -2.45523674570535        1.83833634205951
H           -5.29385611118431       -3.67781714749094        1.66508934748502
H           -6.76248395529166       -3.76899058598753        0.65913947217675
H           -2.61475060054291       -0.29607392728172        1.11642577848927
H           -0.81107805730096        3.29747577046889        0.37927877497601
H           -1.72338092394635        2.60592405190221       -0.97140718840307
H           -2.52690184450102        2.89374974637558        0.58284611722370
H           -1.92702046991747        1.50024383555950        2.61152991220444
H           -0.21754848929587        1.91191475521203        2.37862571175563
H           -0.70904813095555        0.21555260236438        2.46832247841955
H            6.49769112462066       -1.19623538293917        0.62313859025860
H            5.91130147373334       -0.32615256216845        2.08378265356380
H            5.07975374501684       -1.81886309395431        1.52675172110492
H            6.15867391156004        0.63606038399842       -0.89733662607176
H            4.62585645384000        1.54810644378738       -0.78365435372818
H            5.80493426497443        1.62026672613675        0.56845852632056
H            3.27631322115722       -0.37551928526278       -2.93919103340999
H           -0.81220488199632        0.67441209749674       -1.93035240558680
