42
 energy: -83.670613099892 gnorm: 0.000917039630 xtb: 6.5.1 (579679a)
C           -6.01676523528665       -1.49958598390817       -1.12973360740525
O           -4.84795005231230       -0.90509097573129       -0.59061640708608
C           -4.89384919790795       -0.61907140038567        0.75204158044825
O           -5.90147940651817       -0.87874426121535        1.39581862644804
C           -3.66792997322923       -0.01575799556775        1.23517806414693
N           -2.68365185142340        0.17195543415419        0.27862361659422
C           -1.55748763211362        0.70002926655602        0.59749138925571
C           -0.49267664176906        0.93119371682768       -0.46833972139543
C           -0.95512971248316        0.26339708517731       -1.76768053952274
C           -0.32558492238471        2.44245625957425       -0.70961366166690
N            0.77092064866542        0.29197145516131       -0.08974686076444
C            1.71615357277663        0.88190121092775        0.75772176579563
O            1.40419163496105        1.75795024510017        1.60134520149456
C            3.01581486737594        0.35416935509919        0.62059722418014
N            4.09118246981838        0.67864165523150        1.32646779353747
N            5.13176837922645        0.01133184647947        0.93414470020396
C            4.71024885338960       -0.86693119815202       -0.16876594691247
C            4.94928900370958       -2.33615686724809        0.21672040483249
C            5.48699429570518       -0.50487470621376       -1.44497593025588
O            3.32199723159501       -0.62472884737579       -0.34977861299054
N           -1.28361740306768        1.10269679921664        1.88139947362133
C           -2.15405148343522        0.97911420282038        2.92310240420892
O           -1.83444058879097        1.36239504075048        4.05123040511800
C           -3.49375692356854        0.35653937981931        2.59415128483928
O           -4.33044131199118        0.21360508152168        3.50841174163713
H           -6.23243526318189       -2.45442063945789       -0.63890543722809
H           -6.88234653996749       -0.84015671362185       -1.00924352403479
H           -5.83135302906418       -1.66792328857550       -2.18941057909570
H           -1.91598413276486        0.67472347141532       -2.07479687347714
H           -0.22841104259063        0.43738724201684       -2.55899869028533
H           -1.07124103981153       -0.80996558073487       -1.61967977600378
H           -1.26376316395909        2.85213630148586       -1.08207505973512
H            0.45220246259400        2.61447123623335       -1.45212680560695
H           -0.05754377106515        2.96259183637688        0.20857557607994
H            1.19191327562674       -0.22399502189552       -0.84979281492574
H            6.01038159341316       -2.50030272496515        0.39173413402350
H            4.39825586789918       -2.56599033614087        1.12759265668925
H            4.60945984389140       -2.99431647349327       -0.58082995963630
H            6.55392882145444       -0.63117122392592       -1.27249417996737
H            5.28905114321572        0.53379933269601       -1.70457881002015
H            5.17738117828210       -1.14299920353187       -2.27031038313856
H           -0.35924582490503        1.50772398748528        2.06170613799437
