42
 energy: -82.982759436793 gnorm: 0.000867379145 xtb: 6.5.1 (579679a)
C           -4.25921824307220        3.20216462493537       -1.21811257176961
O           -3.60519256772964        2.25747314046934       -0.36004228792959
C           -3.12882515058619        1.16631127933307       -0.92970059566625
O           -3.19168294694765        0.92230268861221       -2.10771592943409
C           -2.46536599376487        0.23555857938420        0.06788037387340
C           -2.74280315545745        0.33161946741354        1.53079759024236
O           -3.75418266274356        0.78536000039371        1.99950218873035
C           -1.62665607238713       -0.25506537340121        2.40107880271710
O           -1.45411261515701        0.06341081700643        3.55886990308560
N           -0.83056617592470       -1.12981345905264        1.74866792813304
C           -1.02801623569743       -1.61851745589442        0.39341143820171
C           -1.93215670996177       -2.85909716645963        0.43577060961421
C            0.36722393087966       -1.87648811258717       -0.26011822151287
C            1.14627135996691       -2.99115542854032        0.44350324213271
C            0.20798341999286       -2.19751040151729       -1.74958550176017
N            1.08899169587821       -0.60923469964493       -0.10758774733743
C            2.34514238576854       -0.39494054310334       -0.55379493313255
O            3.00483872783577       -1.16446096707556       -1.22836232664997
C            2.82830552353386        0.94308481462480       -0.12389391402777
N            2.16427122890854        1.80357059669942        0.58806910725515
N            2.97829832378084        2.88295167586812        0.75839876197563
C            4.08769393996956        2.61083713467601        0.14014805604943
C            5.29281325211978        3.46138865806929        0.02676959491919
O            4.05291571683030        1.40103601818994       -0.43778129381735
N           -1.69832324783959       -0.65400377407662       -0.42576965630004
H           -4.55468889776313        4.03855573263999       -0.58886987952482
H           -3.57085069566463        3.53322805791704       -1.99809487147219
H           -5.13496375234285        2.73968836339620       -1.67764882609615
H           -0.16715123224981       -1.62854822087941        2.32128419469026
H           -1.47503630244887       -3.62948112636950        1.05065667537472
H           -2.88871043804173       -2.57747544521327        0.87272233641573
H           -2.09907406891892       -3.24221988950994       -0.56771128933463
H            0.62323168887603       -3.93966427889612        0.34481068745130
H            2.12705897199111       -3.08816163248471       -0.02031997678805
H            1.28558335419119       -2.76814510593699        1.49915709396942
H           -0.32325606900957       -1.39298504023307       -2.25597663664390
H           -0.34689305417588       -3.12504233307520       -1.87399043083913
H            1.18910461823470       -2.32024495372086       -2.20446317502760
H            0.69736680917035        0.07306658524718        0.52720681301138
H            5.46812105624704        3.72089695861085       -1.01744512484028
H            5.15644811816018        4.36987089452620        0.60836543103059
H            6.16606116554122        2.91988131962662        0.38991236101487
