42
 energy: -82.971535278262 gnorm: 0.000550679327 xtb: 6.5.1 (579679a)
C            6.38348109969095        0.02914053726019        2.56858822708047
O            5.35403141970951        0.62944955439043        1.79160129852558
C            4.31943770502883       -0.17456902901697        1.45800306569991
O            4.28885326012730       -1.34401524078806        1.81860458140000
C            3.28504334293863        0.46659043410688        0.65251769455936
N            2.25129494218698       -0.39096157887777        0.33897955876286
C            1.26227287951109        0.00495069925809       -0.36873449275869
C            0.15993023442848       -0.96244673268408       -0.74167688216142
C            0.28357873773994       -2.23486021191626        0.09794590385449
C            0.22259341952638       -1.26134788071142       -2.24464071796297
N           -1.12888438968909       -0.29247420128698       -0.43028448841875
C           -2.32766373199303       -0.77579272785837       -0.63536888126307
O           -2.46025484391423       -1.96685594183668       -1.14469499391581
C           -3.73952807062569       -2.56012443913356       -1.41230958591975
C           -3.45024531466606        0.05689103829068       -0.27692159111357
N           -4.73223592028063       -0.17588081067908       -0.37050709074503
N           -5.36437315676158        0.91861658214703        0.09353458295239
C           -4.44257553232043        1.77187968795788        0.45010428215217
C           -4.62808907530998        3.11899231248895        1.02178582934840
O           -3.21467127301155        1.28159129419578        0.24052841330195
N            1.17939681906653        1.29241345441880       -0.86444755752145
C            2.13333811982847        2.25690440426156       -0.62384056915769
O            1.98902179970261        3.38008350837614       -1.08980431844933
C            3.31481004919210        1.81953548709614        0.21773883904241
O            4.20550544895807        2.64883168955260        0.46010905767321
H            7.14023549060777        0.79385163097922        2.74016296867046
H            6.82504000592544       -0.81823247706024        2.03489379279083
H            5.98764767144057       -0.32370717470736        3.52584065711994
H            0.14423489110534       -1.99742230362773        1.15140454855268
H            1.28387293431647       -2.64469431227142       -0.03963651806212
H           -0.45200175850766       -2.97417205061058       -0.20642092744195
H            0.03162955096552       -0.35406580857409       -2.81385234412642
H           -0.50865964569593       -2.01529639397621       -2.52369244012245
H            1.21845939747891       -1.63079270814395       -2.48644777828906
H           -1.08587677461434        0.63239298593947       -0.02024935265964
H           -3.52302193331041       -3.53514165410667       -1.84483827784916
H           -4.30394540424189       -2.66529361627348       -0.48449986803325
H           -4.29819750855275       -1.94095208965363       -2.11554208410154
H           -4.19613737155700        3.15699061087397        2.02252166734265
H           -5.68867056410730        3.35470166511308        1.07096032424494
H           -4.11133180277330        3.85656139229030        0.40682245459261
H            0.39265185245517        1.56873141480075       -1.42423998759565
