43
 energy: -83.122962528330 gnorm: 0.000328994590 xtb: 6.5.1 (579679a)
C           -3.74760445083724        3.54527533434131        1.20990948360090
O           -3.54435261705152        2.20777449586161        0.71996683806297
C           -2.30211541395733        1.83860533521059        0.50003285030895
O           -1.32802964328073        2.52274673816802        0.66766403239727
C           -2.19556121322334        0.41019303548270       -0.00943715784352
C           -3.22479831572480       -0.55228882523922        0.04461991777819
O           -4.39225537978807       -0.33241972406937        0.53678399916996
C           -2.99416007283923       -1.91681543592869       -0.50614865712266
O           -3.88776055872312       -2.73661671688121       -0.50312212450591
N           -1.75372656361234       -2.10929407060657       -1.00799311180667
C           -0.69128218655952       -1.15995685613099       -0.95515972740118
C            0.02845928659061       -1.07089191354960       -2.30330518877757
C            0.39455903558110       -1.67877386439828        0.23010090747223
C           -0.30424586748759       -1.57093487018553        1.57967798653445
C            0.76983765164072       -3.12324270256531       -0.06242909710583
N            1.48306666976125       -0.77595229270755        0.20383717116899
C            2.64700577785837       -0.90449804218259       -0.51503703023336
O            2.90912185403677       -1.83122690112709       -1.25089592232732
C            3.56146548410040        0.22561378305585       -0.27590820214687
N            4.76527074472770        0.39016267517910       -0.73429800628265
N            5.21445413588918        1.57083339557392       -0.24385751499975
C            4.25936079739524        2.06536924256370        0.48677981999467
C            4.25548159744156        3.33999148884810        1.23343677734460
O            3.18590712083517        1.26075037916203        0.50701276197595
N           -1.02802671614436        0.09902393600257       -0.51522661123623
H           -4.82090527839049        3.66194545674364        1.34082792831755
H           -3.36554191888377        4.26469367119979        0.48312065473303
H           -3.22531223638888        3.67023787720783        2.16006755347952
H           -4.95662574012320       -1.13775099284374        0.48644703965546
H           -1.57987211438302       -3.00394191267779       -1.44450706415193
H            0.78970378185522       -0.29639866572062       -2.25198000601798
H           -0.70943853636654       -0.79849701494164       -3.05625130497683
H            0.48267854733397       -2.02010859063361       -2.57386756409040
H           -0.46413162464120       -0.53194785972224        1.86022594470727
H           -1.25970770203983       -2.09091886417321        1.56337950678578
H            0.33106983933180       -2.04151387988832        2.32973665358076
H            1.63672430620592       -3.37803996735895        0.54723998753955
H           -0.05885054847613       -3.77209854759435        0.21307348395793
H            1.02758340596646       -3.29868050581342       -1.10301635563945
H            1.35517382496116        0.08449356645641        0.71975313778606
H            3.50438901048873        4.01050808162880        0.81495976126801
H            3.99743901185278        3.15746121201778        2.27615042801587
H            5.23554881505266        3.80713031223589        1.17059402101689
