43
 energy: -83.129088687374 gnorm: 0.000764103785 xtb: 6.5.1 (579679a)
C           -4.50728003658426        2.09213836412267        0.44418262153514
O           -3.59986337408955        0.96560143054858        0.34187977853433
C           -4.04800527540249       -0.13681157234126       -0.15550500737080
O           -5.13809174063755       -0.42679036715040       -0.52153722727873
C           -2.84716203784239       -1.24203324346327       -0.25074897363950
C           -3.32682790371241       -2.33720325042572       -1.20586056656909
N           -1.73551168724943       -0.53067301153361       -0.78098416975629
C           -0.81406315760675       -0.07408468435689       -0.02574519714775
C            0.30484140512396        0.75695926521469       -0.60825330851227
C            0.00899246076217        2.22292276725754       -0.25151615372269
C            0.38858414226652        0.55736913908560       -2.12397146900910
N            1.54495529057863        0.31464862801164        0.03234397755303
C            2.74262372541958        0.91105900866090       -0.22687377618328
O            2.89073012219237        1.95465744706238       -0.82851433204718
C            3.85616449951001        0.11800230420998        0.34249192798873
N            3.75282790021248       -1.01695203225956        0.96831436518426
N            5.01703426718818       -1.40657046424753        1.28472973022708
C            5.81441418094719       -0.48591491265504        0.82807938549455
C            7.29097844251528       -0.44755469582443        0.90965124052621
O            5.13947826366032        0.50129005185555        0.22334511396752
N           -0.78951384092189       -0.25217407970791        1.34814383582427
C           -1.68772028984295       -1.00931196685510        2.02535831587863
O           -1.67780787110771       -1.23793611582619        3.21273674017552
C           -2.73080998442055       -1.61772891109419        1.14405047827108
O           -3.55212869478395       -2.42748725777718        1.68788407489905
H           -4.07607546538741        2.75128762000865        1.19346538998049
H           -4.55805693798780        2.58918608424816       -0.52451182195156
H           -5.49373294963047        1.73983015711711        0.74600710893431
H           -4.22714466691931       -2.80205744441147       -0.80997359745316
H           -3.53533741820528       -1.89520672741862       -2.17749639933583
H           -2.53984936016799       -3.08141477328864       -1.30645310849045
H           -0.99523512914891        2.47715625205602       -0.58663867697993
H            0.72634891583529        2.87857013304288       -0.74144090664537
H            0.07149801451270        2.36378168696060        0.82561538744010
H            1.19474060940295        1.16642645293525       -2.52933493951874
H           -0.55278653788024        0.85547219779882       -2.58147923149747
H            0.57641405193019       -0.49041553607037       -2.35073672922226
H            1.57362241678018       -0.62902880251824        0.38717316583650
H            7.71731410994562       -0.44141527695993       -0.09394194480854
H            7.64989949149080       -1.31832631120921        1.45319057975302
H            7.61226146637192        0.46147707703199        1.41833998611528
H           -0.03890861731268        0.16466566210271        1.88521989635774
H           -3.40181279980432       -2.53541029193784        2.65537443665936
