42
 energy: -82.971496850044 gnorm: 0.000409697383 xtb: 6.5.1 (579679a)
C            6.49953856140022        2.18409164017710       -0.95859166015543
O            5.42954291488791        1.77096793484557       -0.11708377080632
C            4.38367301517410        1.17859308735138       -0.73654831694071
O            4.37717611459813        1.02183751208272       -1.95052129633666
C            3.30791551389475        0.75749174105186        0.15517697507579
N            2.26877890485195        0.14852386836198       -0.51767893976271
C            1.24769081436068       -0.29153082134713        0.11435175251749
C            0.13952426453823       -1.00476230212359       -0.62935709291263
C            0.19607373529872       -2.50395307809390       -0.30857139785018
C            0.26288446211451       -0.73861414073857       -2.13043244110719
N           -1.14558509915805       -0.44726989135963       -0.13640343567285
C           -2.34664046266235       -0.84176803363229       -0.47584562359733
O           -2.48440123796635       -1.78482517571391       -1.36341446194431
C           -3.76467525681384       -2.28663339195662       -1.77400394235921
C           -3.46602469337814       -0.19993216075855        0.16959720409819
N           -4.74850912666229       -0.38414328521332        0.00201090493210
N           -5.37885776247785        0.45139369330904        0.84875500033599
C           -4.45556809155034        1.10893454060949        1.49708573336313
C           -4.64051399582049        2.13755685989965        2.53794394627574
O           -3.22851787186696        0.74060110249742        1.10908056721626
N            1.13456622556358       -0.19692868099994        1.48878392523847
C            2.08977468802161        0.39315596195621        2.28701250935280
O            1.91850569199853        0.44391281956087        3.49836283089632
C            3.30724041298015        0.93425617484254        1.56569926514243
O            4.19818767018790        1.47662941582784        2.23783796030777
H            6.93363685392825        1.32525976282796       -1.47980352871872
H            6.14921735792344        2.90743764908940       -1.70113773332655
H            7.24931056042572        2.64549143709473       -0.31693325776024
H           -0.53331179080812       -3.05843402623106       -0.89277242021767
H            0.00026248024991       -2.66561916423805        0.74934286801215
H            1.19216151195391       -2.87480644362628       -0.54746292210447
H           -0.47587119970273       -1.30960655141585       -2.68624750069982
H            0.12475527874856        0.32238458410998       -2.33177199147423
H            1.26206910439199       -1.02996916526279       -2.45351883649871
H           -1.09950379658895        0.30734222282051        0.53744806263603
H           -3.55077942808695       -3.07054452688231       -2.49794457297382
H           -4.30025821624248       -2.69060838346541       -0.91387114351477
H           -4.35006115434050       -1.48763561296750       -2.23118809092666
H           -4.17845057110175        3.07265004750906        2.21977223612643
H           -5.70172347885305        2.29297215922872        2.71658163754993
H           -4.15287352367589        1.82030825868097        3.46036225316474
H            0.32964362026402       -0.57420863770319        1.95589674542034
