39
 energy: -79.830302337617 gnorm: 0.000732817774 xtb: 6.5.1 (579679a)
C            5.75246241911827        2.73355201315878       -0.68183163828181
O            4.63769944141081        2.18928940273475        0.04127110670255
C            3.78489341140746        1.43833243993806       -0.66967982549179
O            3.92953005959623        1.22196796615000       -1.84849380826276
C            2.65699711093007        0.90075856048988        0.14216642804545
N            1.81571137741080        0.09462963594987       -0.58778018313102
C            0.79495249088625       -0.44449346500324       -0.01905582429196
C           -0.09978855992606       -1.38263352597821       -0.79956558300861
C            0.09710776841520       -1.17222840848568       -2.30375736160740
C            0.25546634411729       -2.81985536173102       -0.38618700585137
N           -1.48744087139087       -1.08215249254665       -0.42883095238837
C           -2.54210770580535       -1.78011815292649       -0.90525519086883
O           -2.47552506974421       -2.77004506187451       -1.61339972836240
C           -3.84265448742141       -1.22208539278203       -0.45657374094417
N           -5.02958559007417       -1.66090326318042       -0.73799813572784
N           -5.91354282660061       -0.83713857804652       -0.10760577963092
C           -5.21175615588090        0.05416434282485        0.51983374628462
C           -5.70313861618238        1.17012219341033        1.35674811666237
O           -3.89293562367576       -0.13147317942281        0.33946952417527
N            0.51873223822360       -0.25660288667637        1.30430689037612
C            1.27805485625152        0.53246913700742        2.14669586972230
O            0.98061220137738        0.66531935605337        3.31966466033145
C            2.43116772301359        1.14659411533018        1.47299672907480
O            3.18053148701013        1.91725894471732        2.26709354622445
H            6.35272725469327        3.28176764358478        0.03998905603959
H            6.33515489952649        1.92499244082537       -1.12829870607223
H            5.39302965004368        3.40271328691300       -1.46642375783208
H           -0.51679660124257       -1.87694589294606       -2.86153218794121
H           -0.18271892212167       -0.15581459114176       -2.57593177480556
H            1.14494231370414       -1.32910280983277       -2.55548512079752
H           -0.32599805818138       -3.53488730832484       -0.96471547077784
H            0.04769988605465       -2.96319718610160        0.67234449169703
H            1.31484739632097       -2.99387262243122       -0.56745064492597
H           -1.67250661252717       -0.21904088942739        0.05422016826564
H           -5.32916985734828        1.06263460497950        2.37517856853671
H           -6.79067051235705        1.16998132674695        1.36564926641908
H           -5.33913560919596        2.11899378394749        0.96334386029484
H           -0.28333823966816       -0.70551538429722        1.72046404953276
H            3.93648758983887        2.31256725838926        1.79858134261457
