17
 energy: -27.463354229376 gnorm: 0.000379568728 xtb: 6.5.1 (579679a)
N           -2.38440165539773       -0.67871491177425        1.05254605053292
C           -1.79701410307779       -0.33469562627814       -0.24314760881970
C           -0.31970962270335       -0.05424266939390       -0.10308601112544
C            0.42999287624280       -0.72473224007136        0.86169030885799
C            1.79084741660060       -0.49051542303044        0.99413971455338
C            2.38322141905440        0.42235912898651        0.14034237533360
F            3.70282662444341        0.65796116750705        0.26123959006845
C            1.67335668341188        1.10453165936002       -0.83053263567312
C            0.31146559411287        0.85821528843379       -0.94553158147124
H           -2.46094682170687        0.16167102096222        1.61039425402038
H           -3.32078559759884       -1.02300765926673        0.89736034339620
H           -1.93246353638105       -1.19203335872476       -0.91368387837625
H           -2.30428925145694        0.52854762218115       -0.69810416411816
H           -0.06501020218491       -1.43081412162289        1.51986977997369
H            2.38154399363916       -1.00243299264510        1.74292881041126
H            2.17400949702446        1.81268586908399       -1.47799591264084
H           -0.26264331402219        1.38521724629258       -1.69909643492300
