13
 energy: -19.065248868828 gnorm: 0.000587228620 xtb: 6.5.1 (579679a)
C            1.97644399623432       -0.43082902224814       -0.14515518107159
O            0.54897095360784       -0.66060403363981        0.04939221435667
B           -0.46654647532171        0.39743653210247        0.17821219870041
C           -1.94106097695040       -0.06775301179819        0.27812819719244
O            0.08507346988194        1.60493551590773        0.17251094629920
H            2.51887571310652       -1.16005824662758        0.45260590242075
H            2.17801336654765        0.58128870605121        0.19852123559443
H            2.20708911972894       -0.53474321874876       -1.20499216751581
H            0.28418224088416       -1.58549695181785       -0.03832457968320
H           -2.54312236168991        0.63945314108416        0.84601956108225
H           -2.03092333825236       -1.05116546555285        0.73431900240370
H           -2.37351080123171       -0.13178476027613       -0.72149414578172
H           -0.44348490654529        2.39932081556388        0.24891081600260
