42
 energy: -82.979759680076 gnorm: 0.000753407427 xtb: 6.5.1 (579679a)
C            6.60507171115596        2.14380358582674        0.51814145648940
O            5.60719593798490        1.42687072541064       -0.19636801420210
C            4.56054774534430        0.97912746884552        0.53936037778130
O            4.50276231318509        1.19963840400261        1.74301136305856
C            3.55892960077883        0.23787897266903       -0.21485658381840
N            2.52317962870556       -0.21638257295870        0.57867631477009
C            1.56131825807697       -0.90005046564427        0.08076068283151
C            0.45580845887692       -1.40683098623548        0.99120536614849
C            0.76346662653270       -0.99396069514330        2.43120753792246
C            0.29733973876273       -2.92781345874225        0.90317010571674
N           -0.82570756703197       -0.74429643264991        0.63882617085316
C           -1.58608940438749       -1.02810086343971       -0.41775052109985
O           -1.35673353065232       -1.81391558999695       -1.31834883645503
C           -2.86485591960988       -0.23402589802715       -0.43636606719567
N           -3.80009952395951       -0.29025914276082       -1.33607200435048
N           -4.74340156173802        0.56941913752928       -0.90946818141169
C           -5.95308517646320        0.76442081234465       -1.68037126928600
C           -4.36957891920559        1.12704116570274        0.22196590269138
C           -5.08101373858618        2.11685615965779        1.04609702080631
O           -3.18798956409630        0.63743419695985        0.54203533335161
N            1.51184294319371       -1.21442920494968       -1.26008808174993
C            2.45290648903971       -0.80594420961559       -2.17020134379148
O            2.32409284910677       -1.10090381169676       -3.35576828236462
C            3.61123306914682       -0.00672352488728       -1.61250064349466
O            4.50051874820179        0.37329311940670       -2.39435791945207
H            7.37129628612024        2.42955327285430       -0.20163413878855
H            6.18038655000062        3.03907742260906        0.98205740671914
H            7.04581849136828        1.51770718758023        1.29997070838455
H           -0.03433437770424       -1.32272650050655        3.09337753233037
H            0.86539080771021        0.08834060928038        2.49789573582195
H            1.70140984568240       -1.44871796882906        2.74693257060083
H           -0.54297136713745       -3.24436478932844        1.51804188614418
H            1.20566461225763       -3.40071835094981        1.27466056084386
H            0.12533536800120       -3.25469922288740       -0.11995427342648
H           -1.18109398202950       -0.08190242333963        1.30659417302434
H           -6.77860177557232        0.93695035176388       -0.99498145767651
H           -5.82342989300059        1.62855448040020       -2.33134737095262
H           -6.12375269670764       -0.13101391197042       -2.27309345703323
H           -6.00034094752247        1.67769748605352        1.43695918650096
H           -5.35528444880153        2.98100346423501        0.44039274245017
H           -4.44668832804229        2.42693521224919        1.87383681487581
H            0.72353564301139       -1.73381921081505       -1.61851750357232
