43
 energy: -83.893887906767 gnorm: 0.000399892579 xtb: 6.5.1 (579679a)
C           -5.02516881174572        1.45009266201531        1.86018336673137
O           -3.80707087507207        0.90903162794189        1.38116566494126
C           -3.75752085067804        0.69246787433353        0.00930482109933
O           -4.74921069202826        0.99510348622444       -0.68937428928693
C           -2.55401407441392        0.15130859294742       -0.45623631166732
N           -1.56503414491002       -0.17678878723698        0.42785732547967
C           -0.42997406042195       -0.61562737634535        0.02906823474020
C            0.62020399321518       -1.09519032389687        1.00354173940006
C            0.86687043410451       -2.59785718425716        0.79686194079582
C            0.15990206667674       -0.80769070823290        2.43631443416866
N            1.86950610771858       -0.35494915224927        0.72912421896037
C            3.01503803733907       -0.54637115911163        1.40079831652001
O            3.19027702553845       -1.34729743896165        2.30815032017774
C            4.11757147420364        0.33799808358425        0.93012671991697
N            5.32335108498813        0.41189199819117        1.40309474300970
N            5.97900796188053        1.35431147573309        0.66624296765635
C            5.13299298484372        1.79613387148375       -0.21117923609737
C            5.36222719310594        2.82265764054794       -1.25149527068190
O            3.93650190958524        1.19568769856214       -0.09809250683435
N           -0.10264838781638       -0.69925491889851       -1.34744795066487
C           -0.94429670555898       -0.29230718724273       -2.33381383363914
O           -0.52772218868379       -0.08546732748243       -3.46757439632353
C           -2.42343708822120       -0.21522534743350       -1.92991409911104
C           -3.02653903740191       -1.62073848506745       -2.19289296740710
O           -3.06175745392399        0.73029639748444       -2.76849948166392
H           -5.86962960693408        0.79057900908098        1.62770868228216
H           -4.92991846777879        1.54878790817095        2.94243269395350
H           -5.22118290567967        2.43521667700664        1.42056627220955
H            1.22956482841530       -2.78127641167843       -0.21311565967147
H           -0.06987091775165       -3.13561172842734        0.93792019899549
H            1.59926293011600       -2.97201561150761        1.50988228848362
H            0.03903493966190        0.26573725747113        2.57860237401710
H            0.88369301372128       -1.18674208614389        3.15521663604671
H           -0.80062857492992       -1.29259143001309        2.60719165745634
H            1.84433348216616        0.36629009568285        0.02635632204436
H            5.30158767435598        2.36932155167527       -2.24146125783399
H            4.59903976709218        3.59767548988538       -1.18768069066620
H            6.34658450025118        3.26434373448031       -1.11735651949972
H            0.86744528025507       -0.78788840720819       -1.60094756784205
H           -4.08081646472823       -1.61451288574763       -1.92092045389994
H           -2.93143279690604       -1.87324337264146       -3.24849408626299
H           -2.50625373101253       -2.36625532751880       -1.59406193691402
H           -3.89986685263902        0.97996952480586       -2.31715342312743
