9
 energy: -15.745794611361 gnorm: 0.000925547323 xtb: 6.5.1 (579679a)
C            1.11494945946802       -0.08172800427635       -0.09265989278585
B           -0.45658557193869       -0.08408513529952        0.02182084716034
O           -1.13146904936344       -1.25297368531770       -0.19883258618272
O           -1.20174536232183        1.03072559444284        0.32198396391849
H            1.56115408187299        0.79116436702453        0.37810463178947
H            1.41080634940853       -0.07968685415189       -1.14246367052300
H            1.54044886702392       -0.97638606018524        0.36063352115995
H           -2.08455120445229       -1.20539465643280       -0.12659891955478
H           -0.75300856969722        1.85836543419613        0.47801210501814
