42
 energy: -82.955798115218 gnorm: 0.000662783011 xtb: 6.5.1 (579679a)
C            6.55885492086600       -0.01393743427008        0.92247303830644
O            5.33871341790039        0.67760464777600        0.67511561046729
C            4.26993281842919       -0.09102793422092        0.38960856626267
O            4.35337976005533       -1.30928803936292        0.35018088157948
C            3.03379318513412        0.65551724558759        0.14121736178364
N            1.97883243721334       -0.15923866516251       -0.17213069173122
C            0.81814794778368        0.32576776394119       -0.44398741770765
C           -0.30503952080102       -0.60894904224181       -0.79831493947009
C           -1.20382485284430       -0.05445590259785       -1.89858257970412
C            0.24372914730037       -1.97992440902942       -1.17193321145570
N           -1.19065980492327       -0.71789531088802        0.48525342528323
C           -0.46228726437151       -1.27822310929274        1.65407944677654
C           -2.42815333728685       -1.52828478111793        0.24951706324073
O           -2.36122524402231       -2.72381480135520        0.20671115546333
C           -3.60925802595408       -0.71612943104909        0.11878666493479
N           -4.84169436387543       -1.11775449649612       -0.06155712182435
N           -5.61073607710298       -0.01803230779276       -0.09438192317781
C           -4.82291090965707        1.01137653164003        0.06792284400740
C           -5.20035256820590        2.43607728448188        0.10323446665328
O           -3.54578081780331        0.63460043146902        0.20828235828504
N            0.56563129306132        1.68128852992875       -0.38076982727331
C            1.52608990478339        2.61922191294358       -0.06742557534130
O            1.22643511499465        3.80346901777560       -0.02788828466354
C            2.91225181206142        2.07429461166668        0.21121549341918
O            3.81920672998417        2.87164002882901        0.47946541119469
H            6.85458045188119       -0.59507236001314        0.04399889988248
H            6.44946416474210       -0.69022363414906        1.77531793893179
H            7.31313392438748        0.74116154257418        1.14036515940679
H           -1.93660901686766       -0.80007490203066       -2.20247585149330
H           -0.58924514684934        0.20383291252338       -2.75986873362298
H           -1.73262882000775        0.83596531203222       -1.56612033297570
H            0.78990875944288       -1.87623448616140       -2.10913259691185
H            0.93537641348446       -2.34129239329601       -0.41250765067611
H           -0.55721498934032       -2.70092982934028       -1.31247818694052
H           -1.47789221471168        0.23594200578300        0.70841435940080
H           -1.05009587720133       -1.06012085412674        2.54157862975120
H           -0.35975930106010       -2.35244943841797        1.52308982198074
H            0.51310063645267       -0.79955155769206        1.71016656355625
H           -4.72371807418728        2.96520318891310       -0.72227371053034
H           -4.85414640347767        2.88808382692569        1.03267519361185
H           -6.28058248782141        2.53233424491960        0.02391104722778
H           -0.35674672158120        2.03526108039693       -0.56075276591270
