47
 energy: -80.234193620793 gnorm: 0.000396554463 xtb: 6.5.1 (579679a)
C           -3.99960250231151       -1.24254128056566       -0.19040465556271
N           -2.61033598300787       -0.92127112875848        0.12100341906823
C           -2.18072476047857        0.35500632844738        0.49942838194282
C           -3.15967153329024        1.51060365718494        0.71971381561269
C           -3.77029256109304        1.96676894540346       -0.61359189236205
C           -2.40290314218309        2.69793601962588        1.34218341198278
N           -4.24552041868494        1.10659714564935        1.62123773056971
N           -0.94528477269441        0.60871864734565        0.72779422600430
C            0.03741918986342       -0.40492942615197        0.66666527786050
C            1.31567697196467       -0.04849851718569        1.24946592184434
O            1.59502487729403        1.07963667120461        1.68664151822536
N            2.23926212467780       -1.07699374749880        1.35442802445987
C            3.63274428538678       -0.74256814510875        1.60280255341503
C            4.32709854387482       -0.34290005164342        0.31652438692352
C            4.19350846407029        0.95301420037217       -0.18059998028979
C            4.78908080290942        1.31667066260269       -1.37992460064963
C            5.51542311249171        0.36104367406652       -2.06746090229754
F            6.09852225386607        0.70604061035304       -3.23249245891424
C            5.67299861267952       -0.93199399162998       -1.60521300899402
C            5.06889986430761       -1.27704027208816       -0.40313997267789
C           -0.25832060690063       -1.61150834280547        0.05106828250043
O            0.43885798742239       -2.65787600616776       -0.02919014877186
C           -1.63067892701824       -1.66775905301269       -0.67170592783906
C           -1.48827957505937       -1.07425434584279       -2.09355139407662
O           -2.01024340777106       -3.01700369103448       -0.76308050143987
H           -4.66202690143124       -0.74610165697871        0.51653378953375
H           -4.13609332752910       -2.32198163724772       -0.09244821694693
H           -4.27434995003214       -0.95048454262753       -1.21045956300154
H           -4.44809480616379        1.21740111925456       -1.01687815097365
H           -4.33417665948126        2.88783917164801       -0.46667043857241
H           -2.98057094007075        2.15480866039557       -1.34105484306152
H           -3.09799801690629        3.51303943381530        1.53941882310699
H           -1.62551199239716        3.04892744330845        0.66340846845108
H           -1.93519908195707        2.39753946212512        2.27974125789224
H           -3.88585711382392        1.00421388721780        2.56212553892412
H           -4.93977795459355        1.83936364584627        1.64335979278486
H            2.09469869143953       -1.88560519490779        0.75779550413070
H            4.12569035396034       -1.61535350550188        2.04109779858653
H            3.66761056769866        0.08114933282827        2.32424667571018
H            3.61848964661341        1.68530659179354        0.37669381545456
H            4.69823211286277        2.31989370545054       -1.77599971299791
H            6.25572143000548       -1.64750231617008       -2.16980417709186
H            5.18588298792470       -2.28506094350233       -0.02182485871325
H           -1.20086660016458       -3.52585021708458       -0.53676706702938
H           -2.41357681495168       -1.20266250158900       -2.65227706237493
H           -1.24579812661790       -0.01433724979265       -2.03539597952707
H           -0.68909140469791       -1.59944025103706       -2.61376290082001
