42
 energy: -83.624010408682 gnorm: 0.000875332351 xtb: 6.5.1 (579679a)
C            3.48260912590854       -2.43832365322283       -3.24264611738483
O            3.45458640782160       -1.31521884635292       -2.38261884615454
C            2.27948066439308       -1.12241476996720       -1.70215262154053
O            1.35077044996850       -1.91566154672221       -1.87177702960443
C            2.25288835853280        0.02446309885867       -0.80406306296201
C            3.40235648137609        0.83725944005469       -0.56683327830115
O            4.49757783661941        0.78556924574425       -1.21039113688561
C            3.29031961809655        1.77570846706251        0.58572007942777
O            4.22875938216873        2.45419454591345        1.03289743777916
N            2.08459745362999        1.79526284961653        1.25149824850971
C            0.85234384291453        1.34348303593362        0.61862737767753
C            0.28846304150186        2.50023066282675       -0.25416565089477
C           -0.16877752586660        0.93753215100575        1.73773294206911
C           -0.65424389236010        2.13310077528912        2.56516398609600
C            0.49488916415807       -0.10795505978167        2.64819728555792
N           -1.29429451038440        0.33227444551534        1.02747851345848
C           -2.39249411908709       -0.18392442402789        1.64856509608841
O           -2.63441193416523       -0.05752112772625        2.86345035472139
C           -3.31291246235535       -0.86694830907101        0.75522830839442
N           -4.43728799567914       -1.48163444539871        1.08571072678370
N           -4.97057606231389       -1.96994918869611       -0.07492194559396
C           -4.16703409494411       -1.63966246678727       -1.03408396451364
C           -4.33051932040386       -1.93905028868652       -2.47730829157170
O           -3.09358709582577       -0.94501069408633       -0.59778838174855
N            1.04643878181980        0.17965271531924       -0.18918005282305
H            3.32709527452949       -3.36821237221042       -2.68353775930868
H            4.46400426948323       -2.45992699202138       -3.71705933042297
H            2.70684322234608       -2.36383482965870       -4.01322931155638
H            1.98766989294894        2.55476091859231        1.90734797156093
H            0.25341674642592        3.43014209264479        0.30974779128442
H           -0.71283127764087        2.25063595163713       -0.59985702111731
H            0.93508747822699        2.64096897291097       -1.11972651603539
H            0.19372253659765        2.70613115329250        2.93713578498583
H           -1.23469305283115        1.79189368450092        3.42177267891270
H           -1.28420160759370        2.78764941825636        1.96450918686002
H            1.34783731159843        0.33854523930848        3.15864684653211
H            0.84364016809072       -0.94754361665629        2.04430764234164
H           -0.21043474790329       -0.47077245811844        3.39447637493642
H           -1.05360638882288       -0.02942592563026        0.10594654224814
H           -5.31878326704210       -2.36048087499479       -2.64715982925028
H           -3.57707551339063       -2.65535554784733       -2.80920513604943
H           -4.21762964055778       -1.02909142664082       -3.06645789251534
