16
 energy: -33.418023486996 gnorm: 0.000507543901 xtb: 6.5.1 (579679a)
C           -2.37951833320145        0.67893682340876        0.01227725364064
O           -2.47110842039359       -0.65309154926755        0.54957733094678
C           -1.48447558917777       -1.41606020994448        0.83069600926027
Cl          -1.87341316257660       -2.91591926347259        1.44281698031117
C           -0.11528774635469       -1.07703069955783        0.65871284108090
N            0.92005247658296       -1.84647263695997        0.93986162279531
N            2.01251520770799       -1.16790970253364        0.63278360067509
C            1.62817354879716        0.00716584446562        0.16883711916818
C            2.48517330860406        1.11055846987439       -0.28849687438053
O            0.30540424827270        0.11128151807546        0.16541600323097
H           -1.87174991782029        0.64932465586727       -0.95134140126194
H           -3.40859184853681        1.01508329074434       -0.09685506810166
H           -1.82995076807238        1.31493483752184        0.70572093446026
H            2.05358843570242        1.57587594293580       -1.17337552482415
H            2.54199224875007        1.87111077155787        0.49342699032729
H            3.48719731171619        0.74220990728472       -0.49817581732858
