47
 energy: -80.198433215935 gnorm: 0.000803860528 xtb: 6.5.1 (579679a)
C            5.15602411560027       -0.89346792999033        0.29490414675563
C            3.83693039913321       -0.16186863571417       -0.09065269847186
C            4.14036033560149        1.00869954335146       -0.99885886334993
C            4.07617657933091        2.27306731736833       -0.52325539379398
F            4.45597067049784        3.28868409415303       -1.35920595314248
C            3.58604865592568        2.64712409888027        0.73764826077638
C            3.03638775757193        1.61453532107573        1.51828640898922
C            3.10162223970670        0.29583630582546        1.15857997162910
C            2.35443687489580       -0.74943619140522        1.93974920731647
N            0.99389279729618       -0.87892805344162        1.38491539070460
C            0.67741375266585       -1.80747205888209        0.46433707169601
O            1.37548132848546       -2.81929748017471        0.24488894269163
C           -0.59823702477520       -1.58600431832482       -0.23234872022652
N           -1.30897057858058       -0.45533439419269        0.07212782686780
C           -2.45305644116185       -0.21806870611131       -0.48835375261663
C           -3.18574063418779        1.03305176764529       -0.01125225076857
C           -2.24382841040944        1.86878613680431        0.87058324143275
C           -4.41086870358220        0.62265626499374        0.81820143077874
N           -3.62383160458468        1.84081756825513       -1.15019923694443
N           -2.99252468946961       -1.08045785472013       -1.40872982745874
C           -4.27740295989501       -0.87566408797588       -2.07711155535275
C           -2.36595801445717       -2.28845480223831       -1.76880870066554
O           -2.91839022417936       -3.04627087921891       -2.57146973854207
C           -1.09441016122105       -2.51046854041194       -1.13216072096856
O           -0.42757355150303       -3.64407153940968       -1.43768579527120
H            5.80515688727621       -0.22070004081846        0.85679536694842
H            4.94385612844706       -1.76893941513246        0.90975786221567
H            5.68230334421496       -1.21685096706774       -0.60443457978315
H            3.22121153674373       -0.90066783349055       -0.63545055652945
H            4.46536966929485        0.80153796233736       -2.01142712324957
H            3.55168918514039        3.68280982514151        1.04381227857958
H            2.52638015887728        1.88276814661072        2.44199391609224
H            2.82365477371532       -1.73692957390621        1.88152996504171
H            2.25501578654404       -0.46965275582130        2.99438573413281
H            0.42166675997036       -0.04542302421763        1.40734555493671
H           -1.34264800994676        2.12920047567936        0.31712971621158
H           -1.95904774050086        1.30977218476925        1.76078857227863
H           -2.75012541722391        2.78386916190928        1.17284907545085
H           -4.10371496568984       -0.02713666310244        1.63734188913027
H           -5.14401453868552        0.09770587228773        0.20918614170450
H           -4.88349785875228        1.51073406117424        1.23544533062961
H           -4.21304497577590        2.58693985464527       -0.81084665516301
H           -2.81983700513189        2.26528741392922       -1.59396138585870
H           -4.17275129558056       -1.16626363907766       -3.12406239702878
H           -5.03674605351512       -1.50719996658324       -1.61264721059228
H           -4.57149112365717        0.16750308103150       -2.02222973810525
H            0.41066024554219       -3.63635310642888       -0.89172544910876
