42
 energy: -82.874065554091 gnorm: 0.000470419220 xtb: 6.5.1 (579679a)
C            7.09760508492779       -0.28167836059397        0.03187333008468
O            5.80070962125660        0.25052412794450        0.32275849814689
C            4.75843661895092       -0.47769286064014       -0.05956210594669
O            4.85453233903597       -1.54530937109062       -0.61732166302756
C            3.44142903482891        0.16349721191081        0.26598206036764
N            2.36715300003792       -0.50568469360313       -0.16953642211317
C            1.14897158286076        0.01500155234087        0.03166315487473
C           -0.00365186688186       -0.80763350061041       -0.49401323786227
C           -0.13929235462853       -2.07483004873680        0.38209991971779
C            0.26326724450649       -1.21734145065221       -1.95559903146185
N           -1.19484316941841       -0.01840305022210       -0.39543814132313
C           -2.49261978855814       -0.42969046598108       -0.85143408826754
C           -2.83396335861713        0.63635993211126       -2.01584603285063
O           -2.64325600151662       -1.62654144899104       -1.26320430607040
C           -3.47309391891533        0.03509395889586        0.24565861329871
N           -3.17815409981664        0.40887462557274        1.44573728568994
N           -4.37111727476403        0.69281229361334        2.05395318455294
C           -5.30218480508861        0.48389910765786        1.17865203736975
C           -6.76274539191919        0.64273547713668        1.34704026321610
O           -4.79257750842061        0.06603831677581        0.00369403960103
N            0.87110473543882        1.15171754901710        0.62734572270334
C            1.89626531763238        1.89948045555264        1.13439503986606
O            1.75333014434160        2.95241688454517        1.74930915514876
C            3.26543246548270        1.37239802037681        0.93017328914173
O            4.24161746244876        2.09848028107892        1.43883968263078
H            7.23209086977215       -1.24000736664542        0.53887887740050
H            7.21016444499145       -0.42290933040166       -1.04553254233349
H            7.81985017535760        0.44563123975496        0.39640129006326
H           -0.36083080693410       -1.78640048603915        1.40809224620045
H            0.80118750082897       -2.62122877459513        0.35278216526996
H           -0.93849608935376       -2.70723714704811        0.00217411321582
H            1.20881351726451       -1.75520326181798       -1.99524397362825
H           -0.53483268778147       -1.85873186839449       -2.32195256750870
H            0.32884260961325       -0.32753929329814       -2.57811597970698
H           -1.08449303423671        0.91867861077774       -0.01678763173270
H           -2.12934758007383        0.45311573245876       -2.81959312310140
H           -3.84896958309194        0.41716780994456       -2.33100755356027
H           -2.74708471501854        1.64853554770295       -1.63822775337603
H           -7.15406311690719        1.30871973494078        0.57880567004924
H           -6.97404340937844        1.05303455815027        2.33156578762296
H           -7.25939894330971       -0.32195300456029        1.24043424338984
H            3.85825373504787        2.91180175564690        1.83008048424614
