43
 energy: -83.117170721822 gnorm: 0.000603223691 xtb: 6.5.1 (579679a)
C           -7.02868439666174        1.66968920827638        0.11634022149360
O           -5.90887976782139        0.93602323067302       -0.39086199925839
C           -4.79270434093877        0.97960517523342        0.32945678022480
O           -4.69050771923273        1.59813905308421        1.36396459036407
C           -3.67247330826128        0.18902776560650       -0.26640062638318
N           -2.52733154362184        0.20369680791101        0.49675988959302
C           -1.48164674143127       -0.43228929249863        0.10558241019697
C           -0.23863347728537       -0.45274139076617        0.96724749344073
C           -0.33443255489713        0.60601299236470        2.06739801075928
C           -0.06953650941569       -1.86043320994567        1.55591963025438
N            0.90324047565124       -0.14578307290395        0.08223171958038
C            2.17290566994348       -0.16107802570287        0.50019648087587
O            2.57922501397443       -0.42464553511068        1.61484351627916
C            3.10962789653954        0.19374084854667       -0.61132017375565
N            2.84849815402050        0.55065835603058       -1.81131431056588
N            4.02495461704061        0.76560480120484       -2.47383939102058
C            4.99867288116817        0.53865003528223       -1.67722025750742
C            6.44629790722128        0.61901659516603       -1.92463341964010
O            4.49176549346534        0.16016376359242       -0.42757537878945
C            5.20281084230815       -0.19860342401124        0.80257813843658
N           -1.45176526906183       -1.15049379615874       -1.05968419974575
C           -2.53002872295222       -1.23245812447369       -1.90970179181451
O           -2.50122418692017       -1.86298570029236       -2.95410115417341
C           -3.70916092372588       -0.49885661291641       -1.44860318057177
O           -4.77280070516034       -0.56340879945414       -2.25360773249279
H           -6.77463207661434        2.72869824458520        0.20358989089350
H           -7.31559417796523        1.28395712011814        1.09758097006682
H           -7.83879719714336        1.53153666873380       -0.59707631522239
H           -1.20855428785753        0.40101810324414        2.68429890379424
H           -0.43782393240222        1.59541623856126        1.62512271887568
H            0.55824591276355        0.57976702231313        2.68811267228189
H           -0.97014662056897       -2.12885059718596        2.10668449293499
H            0.78149033472228       -1.88657546487210        2.23267391739874
H            0.08955140775198       -2.58215046982063        0.75746227074261
H            0.71829040258855        0.12611871059653       -0.87068529563256
H            6.60592987347100        0.94996686069942       -2.94945360434295
H            6.91486516428307        1.32256142868230       -1.23602139098411
H            6.90935155949849       -0.35806606494588       -1.78149389783995
H            6.26268056068857       -0.14985742430440        0.57491599969802
H            4.91724038307729        0.52366868354071        1.56439050807144
H            4.89271857500493       -1.20538290611086        1.07284825908966
H           -0.62128132934104       -1.65176386480405       -1.32988101663868
H           -4.55172233590071       -1.10631293776888       -3.03257534896639
