33
 energy: -57.867908862854 gnorm: 0.000578556679 xtb: 6.5.1 (579679a)
C            2.95401516582050       -3.55584580484983        0.52238150590393
O            1.95199705533758       -2.53701299649921        0.36702128387348
C            2.36988037525888       -1.29489057471596        0.30851797015400
O            3.53419174568276       -0.95654228612058        0.38752537579700
C            1.26790624673535       -0.29858670637172        0.12092861161314
N            0.00481044895232       -0.76138936397936        0.06955692837561
C           -0.97026360313054        0.08142558660184       -0.11632373484557
C           -2.41725623214677       -0.34286655582728       -0.14459217538456
C           -2.88716082031923       -0.48446238398928        1.31122898201267
C           -2.56007235591890       -1.67257599851882       -0.89562552191210
N           -3.16384733597590        0.73507258655030       -0.78110983765315
N           -0.72604776441178        1.40983053648202       -0.24810021953374
C            0.49520659385902        1.95361830847090       -0.20250766414864
O            0.52297691459443        3.25232900730650       -0.35299665171872
C            1.73548438941262        4.02599814790860       -0.32641823738989
C            1.57813234647068        1.05507845947105       -0.00294826070146
O            2.81605815073876        1.53338435442487        0.04801359022358
H            2.42337486946225       -4.50498698199766        0.54879546404354
H            3.64447294024393       -3.52190694750871       -0.32237772797475
H            3.50355402669850       -3.39305201848739        1.45115575062827
H           -3.91967957710924       -0.82909085222565        1.32578258151736
H           -2.82617850400027        0.47843413073679        1.81574198111594
H           -2.26257178680812       -1.20461840216305        1.83811796869567
H           -1.96077720036995       -2.43902942048911       -0.40509082104824
H           -3.60440093698284       -1.97801205123610       -0.89888896705886
H           -2.21896776618603       -1.56108997564482       -1.92346302333521
H           -4.13466321196902        0.69516549035190       -0.50460751978775
H           -3.12197415629602        0.63714268312759       -1.78621670712736
H           -1.54691082544802        1.99685919629422       -0.41699663627458
H            2.23205929092604        3.91434928896065        0.63793257538027
H            2.40006881158735        3.71328188645061       -1.13224223407105
H            1.41832280692335        5.05765592844737       -0.47377493855147
H            3.46826089836802        0.79633072903955        0.18158130918216
