42
 energy: -83.630413593046 gnorm: 0.000350115742 xtb: 6.5.1 (579679a)
C           -4.81994198230622        2.77928102557955        0.58407120389164
O           -3.90257166951458        1.70798950508751        0.39323268133710
C           -4.25464335161170        0.78444479649745       -0.51671941371611
O           -5.30754569828971        0.87386990514233       -1.13758056615206
C           -3.27492453651423       -0.29434936046638       -0.69009142856573
N           -2.16911888149493       -0.27319948896893        0.10912536637035
C           -1.28291074835667       -1.23721379193923       -0.06706702093002
C           -0.02585212600775       -1.19930451122879        0.81171519832886
C            0.36316210051809       -2.64317679373749        1.17566773081178
C           -0.35488143180090       -0.40769037050260        2.08811468370924
N            0.96943893705332       -0.47951477069625       -0.00381153116631
C            2.46237308271162       -0.68248902964078        0.28592852766683
C            2.81512173637777        0.03946629363369        1.62520354077880
O            2.90036902734628       -1.90560760410152        0.18803587719489
C            3.06980244566473        0.22080414628548       -0.85691226673026
N            2.73861556709088        0.20460352041903       -2.11026871147913
N            3.60676550263557        1.05262310455839       -2.77291101754668
C            4.40702143014399        1.51876616187776       -1.87609744638396
C            5.52096224472484        2.47944803026881       -2.06787689163653
O            4.13095200141016        1.03806871987041       -0.64706189380157
N           -1.35540482660659       -2.21943034647005       -0.96148936135798
C           -2.42628172653960       -2.32318021013949       -1.79134379978830
O           -2.52801328356968       -3.23626387210583       -2.63415834553028
C           -3.45512390813228       -1.28470024644391       -1.63278222723147
O           -4.53867410951603       -1.35656873670970       -2.44792736258396
H           -5.79309834656913        2.39644961326548        0.90239992523570
H           -4.94779804901134        3.34313239281312       -0.34409135440264
H           -4.40229352271126        3.42311622553731        1.35597491981654
H           -0.48499095614603       -3.12908136561684        1.66187598258360
H            0.62292661866944       -3.20446151507946        0.27760991988691
H            1.21261293899023       -2.66139239745734        1.85652403299971
H            0.42272144262983       -0.51720671581703        2.84149044657952
H           -0.46971356522731        0.64959230255889        1.84843230071465
H           -1.29242364387980       -0.76832782197244        2.51314437016929
H            0.85805690348487       -0.82184219274841       -0.96519649332624
H            2.32834159057006        1.01105575910800        1.69470915902008
H            3.89468224380962        0.17403053699195        1.67248228614947
H            2.51834845349207       -0.58651071110475        2.46381622456387
H            5.57727743147026        2.76808157130093       -3.11440069787995
H            6.46633927945355        2.02921220810789       -1.76683755842523
H            5.36190561530661        3.36759377510673       -1.45712642686989
H           -5.16159022974403       -0.63011674106616       -2.25032256229621
