33
 energy: -58.544602475526 gnorm: 0.000925496511 xtb: 6.5.1 (579679a)
C            4.41359223206527       -1.20272890960980       -1.97965856303786
O            3.47233459280800       -0.45085231059083       -1.21526522828360
C            2.22080443999227       -0.99172821936275       -1.12949633577103
O            1.96906901785624       -2.04691108983289       -1.68590139732932
C            1.27412840088231       -0.20187414358395       -0.34347582049455
C            1.51959714299723        0.98734097511063        0.27433366083877
O            2.70254510887706        1.63551055690477        0.26325853743230
C            0.47341517081620        1.68318271494659        1.20897672734406
C            0.42241435646305        3.19925154321823        0.81136085255346
O            0.66807237174621        1.44488281621740        2.46610609992692
N           -0.87904619857326        1.12680152539287        0.70516621602168
C           -0.96294895871385       -0.14812772818168        0.26309910742958
C           -2.35486315799644       -0.76954012952224        0.27860080025657
C           -3.13579998033917       -0.20885946647111       -0.91825264658108
C           -2.26096686662364       -2.29785889147558        0.18426846803312
N           -3.04168288716341       -0.35744886770686        1.50511187895429
N            0.00166081065282       -0.81158783803367       -0.27607120185176
H            5.35614448602892       -0.66040542062680       -1.94732119905619
H            4.54197210035401       -2.20117745461442       -1.55184332898985
H            4.07352941763663       -1.29820029570033       -3.01468325055263
H            3.39098241183783        1.16580804633232       -0.23525760354079
H            0.20878581332508        3.31682906221845       -0.24982487142550
H            1.38072669729266        3.65934607802862        1.04587568521090
H           -0.35595458784660        3.68720172482139        1.39504300005204
H           -1.65206123884885        1.40688781055800        1.29971567486233
H           -2.62122671861388       -0.44899234463054       -1.84883664797323
H           -3.22038821324704        0.87444779979365       -0.83107232917672
H           -4.13705341230929       -0.63695466917993       -0.95130359960513
H           -1.74957215120004       -2.58128695182158       -0.73632970493905
H           -3.25742544435482       -2.73637073885703        0.18925304483990
H           -1.69763604730257       -2.69306963734110        1.02954405687856
H           -2.73022854127118       -0.92997689684989        2.27989238979968
H           -4.03292216722800       -0.51353864954967        1.40128952817388
