16
 energy: -34.130480039293 gnorm: 0.000717312955 xtb: 6.5.1 (579679a)
C           -2.63012625859053        0.70271656439606        0.25803018132648
O           -2.28504315042465       -0.56014802144900        0.82836580754510
C           -1.43933947772942       -1.37873323403169        0.11469295953026
Cl          -2.29035402573859       -2.18341361594810       -1.30043555373351
C           -0.14845503411890       -0.93916857234586       -0.22206766639577
N            0.70846016898521       -1.49305246945732       -1.07794547187792
N            1.94169232431958       -0.91553961207249       -0.82466667701811
C            1.78365147666310       -0.08043452388638        0.13877443658862
C            2.81711170471724        0.77987422500684        0.77255916022717
O            0.49610392753638       -0.02591174657804        0.58633406153130
H           -3.08920845262610        0.57501428323004       -0.73006464068373
H           -1.74851428749164        1.34854852059339        0.16216317750420
H           -3.34932278036005        1.17549924925835        0.92913856349253
H            2.60143713601749        1.83454167725063        0.59408095882451
H            3.79272419175168        0.54142990997652        0.35367503716441
H            2.83918353708922        0.61878036605684        1.85099566597399
