43
 energy: -83.891383645911 gnorm: 0.000401300447 xtb: 6.5.1 (579679a)
C           -3.21335300421397       -2.00121025320628        1.42157332916046
O           -4.01061791217981       -1.95013471790426        0.26193175512771
C           -4.09407874459222       -0.68727103142513       -0.45657733495137
C           -4.59463439167879        0.42492070956279        0.48514987820350
O           -5.03762974989494       -0.86758268112001       -1.45724896067761
C           -2.72873964568964       -0.33169222350931       -1.05530621741647
N           -1.85735881107625        0.30546137852481       -0.21559563877343
C           -0.68210922789290        0.63924750919930       -0.63894652733490
C            0.27701763975410        1.36636108878139        0.28824094647267
C            0.56785431383850        2.78075053950333       -0.22977273750976
C           -0.33606227112535        1.44679526525165        1.68782986980508
N            1.52955514989059        0.59902374099330        0.42877819791040
C            2.54980033473195        0.56554667728697       -0.44403859175572
O            2.57839347390455        1.08897003011133       -1.54735439464048
C            3.68347708378156       -0.23315371416836        0.09667573473923
N            3.69824306457491       -0.88466414551962        1.22067561987572
N            4.92346053960440       -1.47502246166179        1.31705683498334
C            5.57763129628329       -1.14411068861157        0.24543668625741
C            6.95781452072737       -1.52878172226224       -0.12339618273087
O            4.84788938364371       -0.36395337897036       -0.56515969390535
N           -0.28627097092003        0.37617760773776       -1.92392828308561
C           -1.06936932164225       -0.26649702672339       -2.85839401706877
O           -0.61997887737572       -0.46304991766090       -3.99114093478561
C           -2.41888199590437       -0.66564435014244       -2.37511390179837
O           -3.21747479600395       -1.27074550076066       -3.16766271537189
H           -2.23585456754906       -1.52237449579565        1.27613673882627
H           -3.70717049963904       -1.52678495276037        2.28114593655473
H           -3.05233218211439       -3.05719818734329        1.65668561038535
H           -3.84024135407504        0.67480765619740        1.22714544991207
H           -5.50631663261353        0.09911962154455        0.98302092784627
H           -4.81015060737746        1.30928367397201       -0.11178979897882
H            0.93965132594160        2.76159719648189       -1.25191090950353
H           -0.35323787466608        3.36133419952412       -0.20416850366747
H            1.30735516378298        3.26408974200957        0.40623876448950
H           -0.53946060522336        0.44692873710541        2.06932445133960
H           -1.27565995682582        1.99524889055148        1.64431768936049
H            0.34428830612624        1.95800611178856        2.36618500326030
H            1.66601644517933        0.12796634943876        1.31058411096439
H            7.40922165853801       -2.09099197188893        0.69001029087349
H            6.94790473504532       -2.14045158364760       -1.02575706210764
H            7.55072596725225       -0.63770504184945       -0.32632426625409
H            0.63725663395072        0.66288811488250       -2.22301843347786
H           -4.50657403627625       -1.14550079351801       -2.28407172055346
