42
 energy: -83.013094982987 gnorm: 0.000317000174 xtb: 6.5.1 (579679a)
C           -3.26002768247741        3.87293107475022       -1.35249911774044
O           -3.13757147607086        2.47459868071472       -1.07566807299723
C           -1.95437596038463        2.05849325741684       -0.63399588886620
O           -1.00996194658608        2.79597836163558       -0.46958729656770
C           -1.90325072920612        0.58911730272635       -0.35612344594706
N           -0.69874173198389        0.14906557235681        0.06784788193629
C           -0.53924963730382       -1.11983886757117        0.35631787679490
C            0.79878827132592       -1.59804747401312        0.88006595904353
C            0.63376841547039       -1.93930163380809        2.36965576062024
C            1.26073077130809       -2.82595108726538        0.08462763404117
N            1.75133036216932       -0.50472383321971        0.71384192193980
C            3.03865088022060       -0.57283268169879        1.08561580143247
O            3.57214472846671       -1.52828583530820        1.63121949177995
C            3.80119464114972        0.66155756185388        0.75639174399138
N            5.04677524382024        0.91227010716497        1.01704716414518
N            5.31485610741969        2.14847091597849        0.50714165268775
C            4.21654842511798        2.57449346040516       -0.03455435827773
C            3.99177533659293        3.86103167151131       -0.72910790190705
O            3.21996172780034        1.68277892542788        0.08982487556616
N           -1.50261080041350       -2.05382665421217        0.26061033775742
C           -2.68418860354378       -1.65746583284941       -0.15596198954444
O           -3.69138396677793       -2.52572324367463       -0.28954578012711
C           -3.41897189142460       -3.89497603645281        0.01285410806612
C           -2.95641790738557       -0.30172844570783       -0.48336850521728
O           -4.18378039089612        0.05747456964967       -0.89120465110367
H           -2.53674901715564        4.16950087212731       -2.11589727038226
H           -3.08322596790580        4.45131707059535       -0.44254033683018
H           -4.27520580560371        4.03167454392520       -1.71036711598708
H            1.56634359103164       -2.32858766858819        2.77430342664527
H            0.34430475686340       -1.04824771899478        2.92503230065051
H           -0.14470467783808       -2.69266199954696        2.47653461028522
H            2.17760218669870       -3.22916995128014        0.51116469298968
H            0.48322760728346       -3.58678916665943        0.12219219635519
H            1.43908182095996       -2.55149079815014       -0.95407022380305
H            1.39278971040168        0.33800401047267        0.28047095927032
H            3.61695941895713        3.67924284108005       -1.73576700824361
H            4.92538880787734        4.41549550074331       -0.78072236173521
H            3.24782619861999        4.45034360469537       -0.19328004484865
H           -3.10963187695173       -3.99646264115805        1.05624935113262
H           -2.62588318380229       -4.27272462730309       -0.63788019916250
H           -4.34501687117930       -4.43900065052130       -0.16281196811426
H           -4.77909788464653       -0.70600405728171       -0.91092520973151
