13
 energy: -19.064152637793 gnorm: 0.000693193964 xtb: 6.5.1 (579679a)
C            1.96276077382177        0.03028587528724       -0.01404429158699
O            0.57884656522245        0.08699065677303       -0.46645990644972
B           -0.66748263493099       -0.09312708523376        0.33197758291326
C           -1.98764048000826        0.07959048493849       -0.45714126760499
O           -0.54901261236452       -0.38928268662313        1.60757705443091
H            1.97857999601521       -0.56702665970989        0.89206756464299
H            2.55001511155172       -0.44755866151413       -0.79467484741246
H            2.31023208883919        1.04356656344253        0.18140855470433
H            0.50217576626835        0.38679358390155       -1.38303822344261
H           -2.85061406727349        0.00446061852006        0.20267686995233
H           -2.02049125459945        1.04321430715049       -0.96403401437722
H           -2.07811090319848       -0.68696803828687       -1.22661515974842
H            0.27074165065648       -0.49093995864548        2.09030008397855
