42
 energy: -83.020687375224 gnorm: 0.000343512731 xtb: 6.5.1 (579679a)
C           -2.33372128326397        4.03146082254681       -1.42653374775876
O           -2.54162291533485        2.66662222564540       -1.05055729549423
C           -1.46242864585226        1.98906737316439       -0.66918182664573
O           -0.35552672709149        2.47793947322690       -0.62952892813766
C           -1.72872420408751        0.56747861298465       -0.28917399437633
N           -0.58351361040060       -0.08444878907550        0.08789083565148
C           -0.63372380159383       -1.31720899086162        0.45705374167296
C            0.62644102360364       -2.04486997093442        0.87688659432975
C            0.53176257228317       -2.42188174032740        2.36308341941924
C            0.83541645129881       -3.28833416134857        0.00066558767869
N            1.72706459507532       -1.10854710093053        0.67207450024738
C            3.01197480236743       -1.39417860457277        0.94283924215233
O            3.42399787560191       -2.45236772765080        1.39404814777504
C            3.93069550282546       -0.26788530557068        0.63260317323702
N            5.21883881640159       -0.24056658381534        0.78191300711631
N            5.63730076858934        0.98830273905839        0.36666805537903
C            4.57838642252178        1.63539487500145       -0.01061126264462
C            4.50673645943006        3.01466532051326       -0.53990619401129
O            3.46550947867317        0.89719704691421        0.13174261026823
N           -1.81125628305338       -1.99957772096289        0.49016317821952
C           -3.03191812060554       -1.46644541864260        0.12784756647717
O           -4.03615819705155       -2.16062910064925        0.18557812974464
C           -2.95271778557141       -0.06477502508606       -0.29526308778612
O           -4.04272407214899        0.61097636790206       -0.68056176054130
C           -5.34341699105542        0.02457417337943       -0.74292084316524
H           -3.30826926601428        4.43151991734008       -1.69848051371209
H           -1.91307089600333        4.59184800525837       -0.58830512395945
H           -1.64982007960254        4.08592191153401       -2.27678291895093
H           -0.33373002686610       -3.06013947248249        2.52741256411431
H            1.42841757596612       -2.96029876650831        2.66526194502833
H            0.43141649150509       -1.52259698462898        2.96868879330959
H            1.75250748050496       -3.79562181088856        0.29519594313144
H            0.00148783621003       -3.97550171736565        0.12444737431391
H            0.90587710974748       -2.99784377152735       -1.04621902215753
H            1.47596679154625       -0.19987861364368        0.29793175533845
H            3.86725800817715        3.62536746978867        0.09701675153876
H            5.50492086440505        3.44427411774755       -0.57256337382144
H            4.07870045869227        3.00913234770860       -1.54204959519895
H           -1.84010169162043       -2.96310077831695        0.78885715565687
H           -5.99988002863979        0.81506775135073       -1.10888150325826
H           -5.36174877348902       -0.81875946671894       -1.43672931646723
H           -5.67660298607973       -0.30135292855967        0.24489523628590
