42
 energy: -82.982363813361 gnorm: 0.000302775252 xtb: 6.5.1 (579679a)
C           -5.66933786690399        2.24782931235446        0.31547325684532
O           -4.44280019091749        1.50598263721857        0.26739572768784
C           -4.51902035794860        0.21237646400220        0.53537838481599
O           -5.53278025140138       -0.37091943122764        0.81809667329093
C           -3.15975270872392       -0.45258517234251        0.43038245300787
C           -2.86864540833970       -1.64680924500267        1.27542215358126
O           -3.47838525061205       -1.92217754300790        2.27618946692850
C           -1.69736556912655       -2.49091414743733        0.76912737072262
O           -1.53843678385199       -3.65381040917389        1.07985392664173
N           -0.86133367828045       -1.83113043767542       -0.05954757622986
C           -1.00969458846723       -0.47991471809165       -0.56904938674795
C           -0.75639174334868       -0.52039396610161       -2.08163030111441
C           -0.02899255805844        0.49052973361975        0.18409340338574
C           -0.31497099959892        0.47054209767005        1.68856738524492
C           -0.16088814574791        1.91009988244194       -0.37464346923143
N            1.32367592656494       -0.01708492639300       -0.04912453841537
C            2.43711074516063        0.60922797132522        0.39770993636534
O            2.46548374401355        1.67297710398252        0.98776671731568
C            3.64820684388904       -0.18132538460318        0.06442408330687
N            3.66703400012910       -1.33778613232968       -0.52853818455657
N            4.97327243706792       -1.70862844128276       -0.62425570595400
C            5.66979686401558       -0.75395351374847       -0.08378295917696
C            7.14037803423506       -0.67737723780233        0.05737773583549
O            4.88910738514218        0.23770899891531        0.36978279391139
N           -2.31768713566492        0.05302011436711       -0.38180854734226
H           -6.11720876010006        2.16265738301652        1.30788618448731
H           -5.41221371408024        3.28229826201077        0.10071074465146
H           -6.36431847023882        1.86267217518994       -0.43351157431070
H           -0.10166910497007       -2.37351625440725       -0.43789064058413
H           -1.38094163803260       -1.29461379625306       -2.52285340643909
H            0.28679279178604       -0.74281010247697       -2.29107225239739
H           -1.01922022014328        0.43721381026338       -2.52443378745218
H           -0.22783020202890       -0.54207741904043        2.07943265760561
H            0.40651896788052        1.10642726995907        2.19884467066140
H           -1.31551913174320        0.85065601351442        1.88726457773822
H            0.24252294498889        1.96398688769066       -1.38364850761370
H            0.38829519288995        2.60784441102219        0.25529487689379
H           -1.21035013886960        2.19935169164304       -0.39166528686335
H            1.44388788764492       -0.92986322910811       -0.45866168036709
H            7.58509311760611       -1.62859429230425       -0.22468435450858
H            7.53509921284652        0.10930030334083       -0.58606922728677
H            7.40347452133957       -0.43641872373828        1.08668620566721
