42
 energy: -82.937415382102 gnorm: 0.000774709893 xtb: 6.5.1 (579679a)
C           -6.64293008364356        0.63881068221381        0.43315372684739
O           -5.35528367962106        0.01096597316941        0.58039641537775
C           -4.33594736590750        0.62152323476190       -0.02062580075645
O           -4.44055578177539        1.63481700144678       -0.65907142472396
C           -3.02393043915647       -0.09970578802547        0.17573828415577
C           -2.81747544721677       -1.15925646718492        1.10068793596948
O           -3.76592129412564       -1.80201701822672        1.70938761923087
C           -1.41599404411484       -1.59681343291766        1.41648514656311
O           -1.18109471512632       -2.31057153660622        2.38577958668818
N           -0.50975973444856       -1.20063824455485        0.51662814797476
C           -0.78238004871465       -0.27502341230769       -0.50551137735590
C           -0.66800007537215       -1.03352763624279       -1.85295842666331
C            0.31823748320441        0.85496318919142       -0.43374821181508
C            0.13036120391871        1.63269345914721        0.87356350831357
C            0.23190649793164        1.78612682634410       -1.63906341349160
N            1.58922069604924        0.14455972739852       -0.39110812145769
C            2.79527621069311        0.73171131261052       -0.55009873834747
O            2.99374697365586        1.87237069800591       -0.92572682659529
C            3.88645380210790       -0.22267256760449       -0.22068203487325
N            3.74000802483205       -1.43542678178070        0.22135555745176
N            4.99132283183577       -1.94213243672017        0.40084687494329
C            5.82279192492437       -1.00482816508294        0.05851307699863
C            7.30119561471988       -1.05786495087880        0.07567201069909
O            5.18588210983411        0.10526404903278       -0.34158069705429
N           -2.04080152402189        0.36559266240357       -0.53858736480453
H           -6.61400180462056        1.63763991248579        0.87215113569057
H           -6.89657504656029        0.70822024724826       -0.62595453299887
H           -7.35605696966231        0.00930522598943        0.95798829250806
H           -4.67211248731538       -1.54240413688177        1.45187109156160
H            0.35538098988207       -1.37965815892517       -1.97542885261889
H           -0.94802215081476       -0.38409898771365       -2.67741003221971
H           -1.34211652346685       -1.88635005938602       -1.82027365913944
H            0.17473138597968        0.95821051277365        1.72710205060819
H            0.92223823791989        2.37482273790433        0.96690070098744
H           -0.83362856143030        2.13819533290510        0.86485051466014
H           -0.80877677746388        2.05292582636825       -1.81685069427686
H            0.79634151484068        2.69682850547240       -1.44548255740199
H            0.63964824907157        1.31201362588086       -2.52942716858910
H            1.56264239220292       -0.75937239425417        0.07193296257188
H            7.69090420993942       -0.33687470164088        0.79522473628429
H            7.62851565547155       -2.05789026430959        0.35154598517974
H            7.69456054556456       -0.80043360150918       -0.90737742607961
