42
 energy: -82.955013690078 gnorm: 0.000446568419 xtb: 6.5.1 (579679a)
C           -5.37607513305657       -0.67425961619901       -1.90914810366467
O           -4.74409620095379       -0.53213058747941       -0.62123434244094
C           -3.44579347444056       -0.40748078709450       -0.60361433393767
O           -2.70863850055701       -0.38643410828069       -1.54129839250797
C           -2.92412810404186       -0.28497203943853        0.90766383855958
C           -3.90475380829413       -0.96417376581037        1.86224158218104
N           -1.65896921897743       -0.93101973072619        0.89585157786696
C           -0.59614955344477       -0.22884708931422        0.64024585403462
C            0.69327111266130       -1.02742688018912        0.51993270356940
C            0.52311834887142       -2.06331081410456       -0.60086045271002
C            0.98034622253359       -1.71302363791244        1.86343993026371
N            1.77095258309631       -0.10307048904523        0.18814800102460
C            3.04521470446662       -0.47222533329697       -0.01263161711849
O            3.47998537405331       -1.61093792164771        0.06313874534984
C            3.89331411751577        0.70231611523871       -0.35672434948323
N            3.49544559645162        1.93410738001256       -0.46127845208601
N            4.58854704887000        2.67302691744996       -0.80580207618264
C            5.58309459720489        1.84337370400554       -0.89012406616332
C            6.98881360001992        2.15021061788383       -1.23533945483372
O            5.20868698002464        0.58438559071148       -0.61765566029363
N           -0.49871502364531        1.11060131313313        0.48286850580516
C           -1.57016816152489        1.88122220942262        0.68389964304464
O           -1.63040690179742        3.11279471031949        0.66768454034570
C           -2.84287445141686        1.16847390374881        0.99181619400246
O           -3.86903753430738        1.91212263921197        1.20809614730119
H           -5.04200219038930       -1.59979481186337       -2.37952953324404
H           -5.11679060201387        0.17793788995137       -2.53868781260847
H           -6.44533210885010       -0.70373923599985       -1.71676908970281
H           -4.05689488908796       -1.99593673025016        1.55527243946420
H           -3.48134333546061       -0.94813523500425        2.86444347952839
H           -4.85550671894612       -0.43703605380108        1.86235893918873
H            1.40577472976111       -2.69651913120526       -0.66969474971608
H           -0.34611642253236       -2.68138061048238       -0.38253456482733
H            0.36796866982632       -1.55749319514517       -1.55323160723645
H            1.86076637565527       -2.34820834364561        1.78233558728517
H            0.12232164309971       -2.32231268882541        2.14203357118403
H            1.14961448159160       -0.96357272629327        2.63538804180113
H            1.51473945561567        0.87733092776081        0.11662041772524
H            7.64504938503302        1.86712635960935       -0.41261539960033
H            7.09285301047041        3.21389892402012       -1.43421734911242
H            7.28878817949977        1.58257404719138       -2.11588362290764
H           -3.58487288259241        2.86194131339611        1.12947929085246
