47
 energy: -79.482364540024 gnorm: 0.000648062625 xtb: 6.5.1 (579679a)
C           -2.40324300642590        2.60652454504169       -0.38506840267301
C           -3.11725589522793        1.45540517263964        0.34474902568516
C           -3.43870657115445        1.88111329173242        1.78791779144896
N           -4.35419890326248        1.11912220369429       -0.34309322178656
C           -2.15634902066823        0.28189283845091        0.42161760812504
N           -0.93854432941491        0.52957609013188        0.64175571798851
C            0.06710605866718       -0.40242347950432        0.79770899554114
C            1.42398689138784        0.23550077522574        0.97537975817705
O            1.52612438839272        1.44819215417021        1.07490748194149
N            2.46594613289046       -0.60769312333142        1.01934339100449
C            3.83297604532609       -0.10433650491381        1.14244127932690
C            4.48247887616882        0.01514400809393       -0.21962690680151
C            5.51358194983278       -0.84572068840182       -0.58543711253003
C            6.11206346776453       -0.74069528746424       -1.83393967938831
C            5.65240423873936        0.23376392992899       -2.70070397668865
F            6.22349895862742        0.34203275954532       -3.90971008706234
C            4.62632333524725        1.10192070669336       -2.37095517632489
C            4.04268370975024        0.98606403537224       -1.11818278119701
C           -0.25046581788338       -1.72549612715800        0.81742621449933
O            0.64085622080721       -2.69981147012740        1.03845042609159
C           -1.61326065434316       -2.17720398540258        0.61206582712783
O           -1.96604622712852       -3.32129568164830        0.64604550090985
N           -2.63701569643169       -1.12883401778627        0.25975497563202
C           -2.91802058728743       -1.37051536289590       -1.19269299757107
C           -3.85490022513803       -1.41289221314446        1.07592138007562
H           -1.49675610572958        2.88977655939790        0.14875478537544
H           -3.07350006424328        3.46224003056083       -0.43752937267935
H           -2.13882913532890        2.29843582353384       -1.39512344216349
H           -4.01298235033916        1.10990318895802        2.29663214761873
H           -2.51731468277280        2.06155751744642        2.34016354593302
H           -4.02641568499771        2.79758214706798        1.76469650169116
H           -5.12097426310014        1.64878678034737        0.04831620637922
H           -4.28562963997950        1.36495379936710       -1.32188848978249
H            2.34858271529095       -1.59326247886778        0.86372015443539
H            4.38922033841688       -0.79910217163750        1.77561828209034
H            3.78551910382179        0.87369192865774        1.63167299097008
H            5.85514510879143       -1.60485610107688        0.10809536515140
H            6.91493828360290       -1.40326727168647       -2.12971889444290
H            4.29369893333857        1.84911570780987       -3.07974469048762
H            3.23839540093522        1.65533787294708       -0.83634234593919
H            0.22625390866075       -3.57900611996057        1.00798808852204
H           -3.76712424092785       -0.75754843014096       -1.47450018205629
H           -2.03367952760002       -1.10090417998295       -1.76432480946332
H           -3.15149327915842       -2.42573654773761       -1.31425921030678
H           -4.12122387355875       -2.45541525977338        0.91867322314102
H           -4.65057322556801       -0.75894647608814        0.73215999364324
H           -3.61728605878930       -1.23266888808349        2.12086212081700
