47
 energy: -79.484519694808 gnorm: 0.000349940207 xtb: 6.5.1 (579679a)
C           -4.11976298828868        1.69846393355325        1.74572986923002
N           -2.91839020406549        1.14581141089165        1.11084634501870
C           -2.91209778737776        0.07040639179782        0.25954422154038
C           -4.18731953003810       -0.66325857656421       -0.14092443344912
C           -3.81508069908428       -1.93490968448032       -0.92168632008789
C           -5.04452497752504        0.24506563207506       -1.03385444390023
N           -4.94863798339352       -1.02726697692655        1.05029847058310
N           -1.81509690626443       -0.35939774440435       -0.28505953865431
C           -0.61147903299577        0.23423685235664       -0.04453771625870
C            0.54987250506802       -0.41497545942834       -0.71111810453848
O            0.53466507572261       -1.55249515866654       -1.13920793787718
N            1.66441572438097        0.38437382701935       -0.82958838764020
C            2.88690890508675       -0.13797278032762       -1.30045136336251
C            3.82890741108829       -0.63464149944338       -0.05995233137596
C            3.03419521708334       -1.72224865869901        0.68867734807645
C            5.03255441597396       -1.17136045338022       -0.70581270583939
C            6.22877601106093       -0.51492744409019       -0.67863681454810
C            6.32624637245832        0.67402349727914        0.05480910065254
F            7.47460183706854        1.29960717747106        0.07722646844212
C            5.25742962917017        1.21352597838050        0.78101254102078
C            4.05841279322444        0.56385510025931        0.75529034214998
C           -0.54695530595655        1.30221088592429        0.80361358360720
O            0.59095735400449        1.94263412881861        1.13931252035149
C           -1.75295738176064        1.81630023902196        1.42562227996281
O           -1.72532325495609        2.78575406999559        2.17827627916025
H           -4.47864050448483        2.54415360810763        1.15872274562948
H           -3.84482540659268        2.04566994013509        2.74175149527967
H           -4.88540113243324        0.93119118326956        1.81906164343265
H           -4.72230161319377       -2.48307360995149       -1.17022186071658
H           -3.29072936598048       -1.67617874578335       -1.84061874106786
H           -3.17002781889963       -2.57086211584049       -0.31757931680501
H           -5.40758307703239        1.10867888570031       -0.48101526305911
H           -5.90291833255785       -0.31501633531096       -1.40259626560588
H           -4.45839034484818        0.59079970503677       -1.88453966201675
H           -4.44325712978839       -1.72125744275734        1.58380668670510
H           -5.83531191645541       -1.42396703975764        0.77210280532543
H            1.66263694230304        1.31570942098683       -0.44600414759419
H            2.70206019142910       -1.01831756498862       -1.91828153431346
H            3.44510067270835        0.62158192195301       -1.84293080796592
H            2.14769197575557       -1.28128606511757        1.13889498261905
H            2.73629048824597       -2.51097289485194        0.00024383836886
H            3.66131583894873       -2.14176217061167        1.47241829996672
H            4.93414129356371       -2.10418923509395       -1.24920516261340
H            7.10422717558805       -0.90007782570244       -1.18698612057373
H            5.40482502849843        2.11936692275891        1.35586443997568
H            3.21108742438359        0.95296528750816        1.30880776234025
H            0.35969641116821        2.67403148187686        1.74772091044219
