20
 energy: -37.645767866107 gnorm: 0.000481900410 xtb: 6.5.1 (579679a)
C            4.03732189717957        0.81130565491630        0.01685570866646
O            2.60120356569253        0.72173205475142       -0.05331279242699
C            2.08608692419751       -0.45654462038321       -0.29868036163272
O            2.67985029045292       -1.48285316131237       -0.47776102317783
C            0.57991829770332       -0.39193958014704       -0.33516361192521
N           -0.23420474135648       -1.37792222158677       -0.55955484137367
N           -1.46063576135396       -0.83404679141490       -0.49609640067304
C           -2.63322334880268       -1.66292462600554       -0.68725318183182
C           -1.36959333808383        0.45557626655490       -0.23400286704131
C           -2.44281417898599        1.44854687965981       -0.07205665861588
O           -0.09280686371119        0.75539407343424       -0.13058138891264
H            4.26285190478958        1.85139776738946        0.23844229861721
H            4.40473184208781        0.15568034763752        0.80781879570269
H            4.46843117144474        0.51532063422107       -0.94061651076289
H           -3.40907151273944       -1.06503458906567       -1.15820109229062
H           -2.97406436347943       -2.01896542930770        0.28461467103017
H           -2.35333708944104       -2.50313194702307       -1.31839162985368
H           -2.00932376383551        2.41115084143578        0.19276775350959
H           -3.13642440681357        1.12481008900619        0.70498614514667
H           -3.00489852494517        1.54244935723950       -1.00300301215457
