33
 energy: -57.850717752244 gnorm: 0.000717346622 xtb: 6.5.1 (579679a)
C           -2.31051266187728        3.49849819407374        1.20718007903695
O           -1.45238960395841        2.41681277500825        0.79804099628755
C           -1.95548488606987        1.26693002096649        0.53925363166764
O           -3.23406122841425        1.12677032877251        0.65312195180716
C           -1.05880542678916        0.20802161034419        0.13627266059820
N            0.26019855762381        0.57616525279420        0.06128318546644
C            1.13700335896578       -0.30042256119708       -0.30483904782244
C            2.60902303233852        0.06736709638187       -0.36306353393781
C            2.75160756694206        1.58083779631550       -0.55564377017921
C            3.25715096971791       -0.37670169721449        0.95639693724348
N            3.27455948217118       -0.61314989610714       -1.46188705902989
N            0.78024841534914       -1.57760910515901       -0.61842161466445
C           -0.49821641443241       -2.08179447386253       -0.57760957685034
O           -0.72973237501322       -3.23634415610554       -0.87816280159670
C           -1.49011191255325       -1.07945293824268       -0.14827296528055
O           -2.78195191282525       -1.36410613966123       -0.03038018829230
C           -3.32020836121362       -2.67894138364508       -0.28161071867480
H           -3.03955178468204        3.69956943046212        0.42181228380417
H           -2.82514720232753        3.22240946852877        2.12811046508757
H           -1.65858618477576        4.35448271314937        1.36451969714934
H            2.26051872037101        1.88728608239562       -1.47828152169678
H            2.29434384203891        2.11155989406303        0.27820782160824
H            3.80838241900565        1.83797888720954       -0.61324748461455
H            3.12097944338213       -1.44777575438708        1.09740185761911
H            4.32341965784821       -0.15599671310705        0.92751609086117
H            2.80280393237008        0.14965645093580        1.79457128505745
H            2.72874678237570       -0.53817316936347       -2.30788467141517
H            3.41787525253194       -1.58910685656186       -1.25086237857160
H            1.49273304282433       -2.22747210369637       -0.92434976865686
H           -3.56532271832138        0.22609338253580        0.44202462064048
H           -4.38407798323943       -2.59744710955084       -0.06809226234796
H           -2.85467101247975       -3.40922469347947        0.38091939103000
H           -3.16076280688393       -2.95672063259736       -1.32402259133292
