47
 energy: -79.484943559566 gnorm: 0.000597699905 xtb: 6.5.1 (579679a)
C            6.83235498552421       -0.05541227441252        1.52682293490008
C            5.99108819178605       -0.21136445385576        0.23258989225825
C            4.84276909722707       -1.12453147499823        0.38409526264263
C            3.58340744318068       -0.80979243019497       -0.05172872690675
C            2.45706511177430       -1.81026967316121        0.12042685054348
N            1.21445470198190       -1.33025115080076       -0.43641886963148
C            0.23859592625816       -0.83888182008598        0.36926974438733
O            0.30563909677953       -0.88339870450148        1.58582440846111
C           -0.92596309059953       -0.24492418359579       -0.36377917453718
N           -2.12733504881185       -0.31302845764802        0.27539563306895
C           -3.20083341137565        0.19759889393892       -0.24647345122167
C           -4.48641290050423       -0.01599533785727        0.54350612628125
C           -5.22210805892572       -1.23356392473006       -0.03622547536245
C           -4.13487894816091       -0.28998793920077        2.01664800477748
N           -5.34480908873641        1.15613300105162        0.46348768325207
N           -3.18544314027616        0.83510166199711       -1.46045413534986
C           -4.37571350331806        1.42613623042838       -2.07969237271655
C           -2.00611214425157        1.00055885949721       -2.16673986890399
O           -1.94502360659520        1.59914764617239       -3.23769936415897
C           -0.83579165527529        0.40131841479253       -1.55977269823580
O            0.32160670958516        0.55544965559183       -2.24421406339248
C            3.35211369887281        0.44996250495337       -0.64453959574825
C            4.36946170638406        1.38683738022753       -0.81192608032734
C            5.62976336752681        1.07547265089722       -0.37588303732435
F            6.60074389127970        1.94207555715921       -0.50884115991963
H            7.70143075722514        0.56434938415865        1.31690963506221
H            6.22642877735344        0.41327571231105        2.29938862371725
H            7.15734749739077       -1.03667055279240        1.86397037632946
H            6.67730271058188       -0.70352486904096       -0.48227930933511
H            5.04605544860302       -2.08114566994906        0.85205243237729
H            2.30050704876975       -1.99890926242817        1.18847848815286
H            2.73395932235459       -2.75067445942914       -0.36317728964827
H            1.14395003953681       -1.27220867813464       -1.43719945859028
H           -5.53619480269152       -1.05043307432453       -1.06212738213541
H           -6.10475382871647       -1.44638170759170        0.56517045738380
H           -4.56577971015654       -2.10289452774208       -0.02041840989454
H           -3.57042213768069        0.54509319044813        2.42857156238303
H           -3.53517782137373       -1.19539217699886        2.09945435387276
H           -5.05295215179946       -0.41490696679462        2.58778010841981
H           -4.96229741868283        1.91434024726018        1.01133018264606
H           -6.26811445664487        0.93852221050263        0.80894357885968
H           -5.22805087462019        0.76498366804183       -1.96301467219106
H           -4.16628603099065        1.57453006647292       -3.13875957979183
H           -4.59263346263219        2.38455211683690       -1.61043958455209
H            0.12536767157706        1.04055255744778       -3.06919221355133
H            2.35089158972087        0.69857461700908       -0.98242718493835
H            4.17078550154797        2.34997854308042       -1.26586218141138
