21
 energy: -30.734824914721 gnorm: 0.000621009103 xtb: 6.5.1 (579679a)
C            3.82085820881299        0.08809967299589       -0.55441670851466
F            2.85344930253136       -0.62065066446923        0.24249701193419
C            1.40673419249290       -0.36695854404844        0.31929151425120
C            0.60426611887027       -1.21051465469607       -0.40508480377227
C           -0.76147525447797       -0.97753810692269       -0.30354877297953
C           -1.25603014658467        0.06189591170967        0.48459226417795
C           -2.74212342477330        0.28996963186123        0.58033498049429
N           -3.41516158932471       -0.19423047885232       -0.61994862048570
C           -0.37198373151262        0.87727204124945        1.19156986693651
C            1.00080466266356        0.67194838976987        1.11629029389293
H            3.42610525049666        0.10124585499542       -1.56600429449494
H            4.72338095165896       -0.50660688611728       -0.45326140794059
H            3.90501515053708        1.07756909456928       -0.11554067316179
H            1.01120362988769       -2.00571332464855       -1.01351271266763
H           -1.45589557076888       -1.60323098747175       -0.85316637337924
H           -3.12116010772206       -0.27625083674275        1.43893973857183
H           -2.94558366738304        1.35427523091036        0.76365916572548
H           -4.41182867115142       -0.18796806708319       -0.45328341021990
H           -3.22710926296308        0.44580149730162       -1.37932329567213
H           -0.74751916174083        1.68729428518295        1.80484173963393
H            1.70405212045063        1.29429094050702        1.65035149767020
