42
 energy: -82.929637055470 gnorm: 0.000573801477 xtb: 6.5.1 (579679a)
C            2.57765044989328       -1.33300981819010       -3.26129686406165
O            2.34498277138428       -0.81338212467782       -1.94947951843697
C            3.14890195544713        0.17587008794819       -1.55508726927032
O            4.02583548734454        0.63237543667247       -2.25040846617747
C            2.84351027683943        0.62427847376614       -0.16291974102413
N            1.75620597898981        0.09905683653784        0.43353254761869
C            1.50588517974945        0.42106964436335        1.70502380177485
C            0.29693833063975       -0.25180430514050        2.32735841483953
C           -0.22777164277180        0.55559076852438        3.51690148025654
C            0.70829612794986       -1.67193038326260        2.74892286635469
N           -0.72685759566346       -0.33359398253337        1.28086208067094
C           -1.93952751300682       -0.87070428936900        1.47326618491723
O           -2.36121798743529       -1.35819835340708        2.50980337738148
C           -2.80417120790922       -0.79491417188714        0.26064446949361
N           -4.09086996602314       -1.19507511755343        0.22189936078172
N           -4.55417237140067       -0.95776839644407       -0.94592676139193
C           -3.52818585996464       -0.35925080614503       -1.75439158667946
C           -3.20374252575489       -1.25320904538333       -2.95253174817127
C           -3.93661741588165        1.05515352880919       -2.17287885602199
O           -2.39990213264106       -0.29286030980466       -0.87567480167449
N            2.25006200894675        1.17753425747493        2.48036062858762
C            3.35080054989311        1.79011087585238        1.95643095665970
O            4.07573689471705        2.57081668104632        2.57381901467990
C            3.66199734717952        1.48631891818819        0.54613176812029
O            4.72934980223261        2.09118418042817        0.04103868723942
H            1.90255504910791       -2.17678509377428       -3.38524168423271
H            2.36713284529231       -0.56674553227931       -4.01078167972838
H            3.61619551458557       -1.65910237905607       -3.35895365741196
H           -1.03993297898616        0.02745570883295        4.01205890158097
H            0.58561984900692        0.70781556379928        4.22508633688595
H           -0.58508503752399        1.52614235234362        3.17654536748350
H            1.51597918413105       -1.60955174393711        3.47631078715650
H           -0.13550829540300       -2.19443783804395        3.19564619511583
H            1.05416761268660       -2.22420527136140        1.87646074237857
H           -0.45838651042085       -0.02130083070862        0.35694458602364
H           -2.37678341478423       -0.81884154833104       -3.50814561196540
H           -4.08016605245768       -1.32169564974403       -3.59177423641047
H           -2.92827618220906       -2.24489173368568       -2.60063330970165
H           -4.13660594841371        1.65047730523111       -1.28457110081092
H           -3.12785631847169        1.50718230589024       -2.74133607141906
H           -4.83209312308524        0.99863605076663       -2.78644842070684
H            5.15592486417903        2.61004674824353        0.75343382929074
