46
 energy: -86.306008611983 gnorm: 0.000424599754 xtb: 6.5.1 (579679a)
C           -5.25626803443184       -2.97463666194071        1.57048332751910
O           -4.24146030696362       -1.97866563611363        1.34246099949551
C           -4.06395335137931       -1.54743416062846        0.11911310213451
O           -4.65232447011011       -1.90218274710472       -0.86535975922942
C           -2.93796446158305       -0.52431209202768        0.04356405697569
C           -3.10137185656368        0.68800340437308       -0.80646291633060
O           -4.42086017269765        1.11316685645982       -0.80286055124109
C           -2.16143480683225        1.78415265369963       -0.33931153238105
C           -2.63492635309052        0.31021453795263       -2.24684309188935
O           -2.33011635990426        2.94761802031507       -0.53367673172524
N           -0.93717916064551        1.32350842730473        0.27051488610251
C           -0.00536765294973        2.41753271280836        0.56161209013049
C           -0.75619374406900        0.05043894955632        0.57365527551367
C            0.52203162404243       -0.55906861737013        1.07239547706506
C            0.57259749685860       -2.05335416487831        0.71279994734039
C            0.49640419332767       -0.38382236227005        2.60736507322152
N            1.66291725346778        0.11409749062849        0.46797086231911
C            2.94909582181504       -0.14043568467038        0.86578779585494
O            3.26290737185824       -0.75664788605979        1.86037123754579
C            3.90632479565096        0.47268512855058       -0.07758709520289
N            3.60273316797003        1.10012627513041       -1.17617060918054
N            4.77513290846044        1.48725572177517       -1.74221674097870
C            5.72426532560263        1.07087335533105       -0.95445031171718
C            7.18312524548226        1.24078919007280       -1.12675138454651
O            5.23573311348622        0.42248964595810        0.11142487721263
N           -1.81053264583305       -0.81166889229595        0.58886642769314
H           -5.27476909906431       -3.68303008663195        0.74087946628462
H           -4.99083057741725       -3.47220978743870        2.50074680810060
H           -6.22567812526250       -2.48275018724362        1.66471453345068
H           -4.51506530820171        1.97358745737027       -1.23512881006167
H           -1.60810290348719       -0.04411912971692       -2.23600661762220
H           -3.29826672554198       -0.47013506728225       -2.61641551438474
H           -2.71825345995330        1.19460894607987       -2.87456914151170
H            0.81484977907645        2.06010223806137        1.17112488155376
H           -0.56392586545568        3.18960881691797        1.08979906951401
H            0.35808961963318        2.81770290314946       -0.38360316546107
H           -0.25869340838612       -2.58099328891975        1.17492550979907
H            0.52319758093138       -2.17820972398380       -0.36676918563205
H            1.50959037687328       -2.46709852443190        1.08137860622887
H            0.64795347569282        0.65958605362903        2.87247238198575
H           -0.46549443463142       -0.71850617091240        2.99174326027651
H            1.28663427281715       -0.98686804224633        3.04946819700288
H            1.54970312426888        0.44041702596451       -0.48066342322130
H            7.38228272356869        1.80728144817240       -2.03321170556667
H            7.59888762877784        1.76555650707238       -0.26640875427449
H            7.66458138479732        0.26474314783144       -1.19144210815603
