43
 energy: -83.867438759174 gnorm: 0.000189486048 xtb: 6.5.1 (579679a)
C           -6.71198175348985        0.31180369989285        0.80993885293447
O           -5.49622402785378       -0.27590818748876        0.34425656029241
C           -4.39083590879339        0.51579750977238        0.43901407951808
O           -4.45654062164879        1.63899254593867        0.91179598114674
C           -3.17152634060494       -0.10232696797221       -0.07897421117149
N           -2.07156405421366        0.73071041621593       -0.00815951835786
C           -0.93574861765040        0.32532541661342       -0.45405960319373
C            0.26346662928725        1.25582013133539       -0.45146572212958
C            0.09276097608201        2.33413130516316        0.62422020406140
C            0.37591125769788        1.89563734036971       -1.84036431461577
N            1.48053384099832        0.48526391833027       -0.21775741732356
C            1.66367666652971       -0.28745037657033        0.87549081011060
O            0.82134016130281       -0.41795153807518        1.75626882630691
C            3.06112330082922       -0.93660587022187        0.97251505608870
C            2.93458112856819       -2.37451778132229        1.49890780070175
N            3.85783946939491       -0.10549135477839        1.87607648682701
N            4.91678743829468        0.32490980275362        1.15262133014656
C            4.84793437593313       -0.12775180619798       -0.04806361257027
C            5.81132351192458        0.08389856691144       -1.15845296203554
O            3.72419791039375       -0.90936357104038       -0.28471532048969
N           -0.76393382047003       -0.90867506473875       -1.01169121839569
C           -1.78311424160690       -1.84873241429674       -1.12696090447710
O           -1.55299366831752       -2.94425777443189       -1.63673463776299
C           -3.05099441784110       -1.38330167414427       -0.61153579111323
O           -4.06261711440870       -2.28015734580800       -0.70989205749031
H           -6.63947975069018        0.54023348140888        1.87681909429767
H           -7.50213437627369       -0.41509747483770        0.63621606819286
H           -6.92232838067577        1.23216523939041        0.25851229776846
H            0.95514305096872        2.99815925210367        0.62268022712838
H           -0.00806249079428        1.87481376624282        1.60725537814343
H           -0.80594119950015        2.91210522413478        0.41404185739215
H           -0.52810208328925        2.46151077680377       -2.05946527894223
H            1.23031431829189        2.56927004209881       -1.87420636804421
H            0.50227490645958        1.12655784778707       -2.60035093610224
H            2.19642635394463        0.50933557511290       -0.92518259229162
H            3.92693718389101       -2.76949911194685        1.70467283354356
H            2.44540347812097       -3.00051232009919        0.75508762458166
H            2.34828054129362       -2.36933299134226        2.41617831147658
H            6.63871643741183        0.69760117704270       -0.80798615549764
H            6.19980233735073       -0.87146872085351       -1.51566272831881
H            5.32882788392826        0.58206816950358       -2.00083949750412
H            0.13560052957705       -1.16356835176110       -1.39145655675751
H           -4.90508182036388       -1.91414050700830       -0.39463327607899
