42
 energy: -83.009611513046 gnorm: 0.000720211180 xtb: 6.5.1 (579679a)
C            5.93430593199231        2.58583576880750        1.31978006911892
O            5.03946626768837        1.48493768062166        1.14077113303974
C            3.92146925921150        1.73098595450565        0.46185346919940
O            3.64897441654112        2.81710405707190        0.00272246655544
C            3.03754684619008        0.53554294364132        0.32740905861318
N            1.89078114750512        0.77239364787403       -0.37905184456018
C            1.00899288238167       -0.15031579853159       -0.58265443311120
C           -0.19328478067995        0.24661722340316       -1.43106010968116
C           -0.16532269762214        1.76142226825480       -1.68174959655549
C           -0.14630293043529       -0.49963177383192       -2.77231663667731
N           -1.41043847885517       -0.06887317133011       -0.67299739801147
C           -2.65851750770917        0.03781711543864       -1.18859128150286
O           -2.93349390647991        0.23881367695331       -2.35588313042467
C           -3.67582771447936       -0.15404976769636       -0.12353969528805
N           -3.43563621089211       -0.28952062440302        1.14632760714768
N           -4.64258310778346       -0.42844901836129        1.76154393201275
C           -5.54320713843408       -0.36833816697834        0.82724091967402
C           -7.01072248022637       -0.47721115859979        0.97893723606158
O           -4.99445783555325       -0.19337710600134       -0.38388105075525
N            1.17260779054221       -1.42545406977900       -0.09895828286658
C            0.23649251765105       -2.53428499930424       -0.29595680011048
C            2.30519072794639       -1.77628775930046        0.61128280263195
O            2.48541719161447       -2.91331855569463        1.03682811182781
C            3.27558012068543       -0.71323156790881        0.82937615941191
O            4.36160191614825       -1.06561357836903        1.52569906303671
H            6.27278678485611        2.95733775653335        0.34953457740882
H            5.43407685506552        3.39291082434908        1.86040455015605
H            6.77793731398546        2.21126380392760        1.89584278372150
H           -1.04377671008517        2.04811329958974       -2.25724848088912
H           -0.16567820647540        2.29780589265603       -0.73434788071293
H            0.73112419556278        2.02795765562563       -2.23887908386188
H            0.85811946298511       -0.41911213145842       -3.18555946987963
H           -0.85086700379941       -0.05646311032735       -3.47293186833143
H           -0.39408159653476       -1.55068203994652       -2.65220624956810
H           -1.33460439091251       -0.08330199690975        0.33388085387126
H           -7.49935757814706        0.38031813470613        0.51742481016910
H           -7.26637797311261       -0.52284094656557        2.03464881415216
H           -7.36944253450529       -1.37801395123130        0.48043082192086
H           -0.74833394026132       -2.16561876862243       -0.55689221948663
H            0.61774748801664       -3.18632269210928       -1.08171801140621
H            0.18320075583955       -3.09686782416770        0.63606464565167
H            4.28889685057911       -2.00999312652934        1.76034863830179
