47
 energy: -80.198677938263 gnorm: 0.000766748032 xtb: 6.5.1 (579679a)
C           -3.10757135204442       -0.58213719833373        2.62999194130887
N           -2.14527915871864        0.02907535328164        1.71572844532809
C           -2.29872766095378        0.05707781520130        0.35339550225589
C           -3.52644933282373       -0.53144428435447       -0.33661701156500
C           -4.68384047623264        0.47572948918540       -0.26457519314688
C           -3.19075010447649       -0.80544787907576       -1.81263046694922
N           -3.93368057488989       -1.77968655622430        0.30672305990479
N           -1.42490915315633        0.62080710102502       -0.42011269003475
C           -0.27370815067577        1.18251320537325        0.05789731535382
C            0.63636442520928        1.98026928756479       -0.96552264963164
C            0.11889633844263        1.66955201773763       -2.41359386074160
O            0.64614329103486        3.25382578713085       -0.67933582823917
N            2.04963726373013        1.38682263783092       -0.87637496331393
C            2.11728293267563       -0.07515559975612       -0.95338576551237
C            3.51526692224717       -0.51521429384533       -0.59550028060207
C            4.56451427960213       -0.29935296881462       -1.48903847847495
C            5.86213650960374       -0.67070895916629       -1.16741450502620
C            6.08853263276144       -1.25547115226513        0.06564699179700
F            7.34630816629059       -1.62199827401428        0.38608691104387
C            5.07686425677877       -1.48351953875593        0.97929446386231
C            3.78497790943182       -1.10478468462823        0.63742566816325
C           -0.05092877496776        1.14302869801871        1.40736076124326
O            1.07711231017269        1.63402301565998        2.00218053793531
C           -0.99894713678080        0.54767898918183        2.30817547770018
O           -0.82061005027807        0.49835516752321        3.53481324784789
H           -2.92687418081318       -0.18649195372803        3.63021007878378
H           -2.97646285968333       -1.66370200140624        2.64032311038945
H           -4.12373167369994       -0.35059030671775        2.32673049234070
H           -5.53855463775310        0.09085673062520       -0.81889877349563
H           -4.99217914685189        0.64997220813045        0.76490395238868
H           -4.37918467406894        1.42492759595392       -0.70552026460399
H           -4.04600901515837       -1.27244747343428       -2.29740547801834
H           -2.95117860045569        0.12328798269366       -2.32988945848469
H           -2.33558558880319       -1.47638078609830       -1.88382416494039
H           -3.28757011021360       -2.51745826022874        0.05668231588577
H           -4.84354123941735       -2.04871662991408       -0.03855807107789
H            0.84053545315028        2.06320103939825       -3.12896067881332
H           -0.83218904814635        2.18237438181308       -2.55305606408133
H           -0.02625595469156        0.60527412403516       -2.59024155996473
H            2.39417003389589        1.66501625004132        0.04520384180520
H            1.89305209918627       -0.39197822190782       -1.97872470199289
H            1.39279650952046       -0.56439062687345       -0.28128917659864
H            4.36557173263924        0.16173103900607       -2.45075472411896
H            6.68237274217435       -0.51451569573170       -1.85572803367945
H            5.29541272981078       -1.94809946969408        1.93170205916282
H            2.97830970210767       -1.27974546584337        1.34058418224684
H            0.98845941528911        1.49403436440091        2.95991248636059
