42
 energy: -82.971620302776 gnorm: 0.000381075916 xtb: 6.5.1 (579679a)
C            6.68840652462431        1.49217874509460        0.85654388149858
O            5.51641638767536        1.43741719271474        0.05245552768566
C            4.49954146748117        0.68947818983734        0.53738611119751
O            4.60459836286371        0.10044342350360        1.60524012304429
C            3.31207594655389        0.65627887951306       -0.31028163546439
N            2.30915177678048       -0.13438135356052        0.21188760841881
C            1.19865918497648       -0.27728399857485       -0.40623881040612
C            0.13051655078589       -1.19563014541008        0.14705598167889
C            0.01980278967020       -2.44185598285614       -0.74053882344585
C            0.45522681178946       -1.55579510844856        1.59769121166721
N           -1.15238645302680       -0.44775726138607        0.10251476223397
C           -2.32988159077101       -0.89939999174692        0.45261502582702
O           -2.43935650019708       -2.11195260780809        0.91482285077915
C           -3.69530231810751       -2.68787373460242        1.30321265304763
C           -3.45721882453056       -0.01123810703414        0.30230550552816
N           -4.71771044210206       -0.20457788928295        0.58539029736406
N           -5.37169569676820        0.92496414419753        0.25555601791722
C           -4.48373266019257        1.75866428844312       -0.21499328861389
C           -4.70942570994841        3.12816670201998       -0.71432891421792
O           -3.25697671572952        1.22288205154067       -0.20804666499714
N            0.94606093860380        0.33571884430584       -1.61918921962306
C            1.85223919471607        1.15616478804117       -2.25437660259904
O            1.55698084300104        1.66757259038001       -3.32708702531501
C            3.17708470833346        1.34756093290364       -1.54493336208420
O            4.03151314645857        2.07282116510173       -2.07757454479928
H            7.40388682239092        2.12612554403127        0.33384789532834
H            6.46182200638383        1.91818024145669        1.83871079801751
H            7.10902390096410        0.49128916867891        0.99403154759893
H            0.99728029142530       -2.91967651493882       -0.79509139211880
H           -0.29393489090305       -2.15916984728739       -1.74327204151844
H           -0.69493222138375       -3.15137985817266       -0.33266118995096
H            1.45622097896953       -1.98521137490250        1.63281439492079
H           -0.25790997501207       -2.27677658535079        1.98761062309593
H            0.43633685336636       -0.65890159470379        2.21463776076159
H           -1.12402178540264        0.50624685095420       -0.23573701388690
H           -4.13433473986008       -2.11274871990195        2.11969085879324
H           -3.46278542893339       -3.70061488442742        1.62679527322318
H           -4.37813703600410       -2.70132132161920        0.45259564891882
H           -5.76440630089256        3.37841721080404       -0.63278876525028
H           -4.39286099263501        3.19796474200967       -1.75537235160137
H           -4.11589204425368        3.83662979145870       -0.13594594590336
H            0.07005783883792        0.18837839501900       -2.08750176675684
