43
 energy: -83.153130732165 gnorm: 0.000265274703 xtb: 6.5.1 (579679a)
C            4.54784932546128        1.12291726781947        2.90217845700987
O            4.14657283577803        0.24971467940808        1.83153616630979
C            2.90383224195233        0.41705537920208        1.37395025028844
O            2.13605176646276        1.23850199097207        1.81387167958454
C            2.55712290424728       -0.50768245886447        0.25843427692202
N            1.27832242451962       -0.30174212606632       -0.20751717940253
C            0.82652676959222       -1.00994475651081       -1.18345973200702
C           -0.60952174677182       -0.77878444554030       -1.60762927273427
C           -1.49844327824124       -1.77264675905839       -0.85191142166789
C           -0.83569802597226       -0.85958270820326       -3.11139969321126
N           -0.91564619497580        0.61289234044170       -1.08180082660081
C           -0.32795296441008        1.71948451130706       -1.88107818413236
C           -2.38995233481781        0.86575655678625       -0.92489170626007
O           -3.07819656458183        0.99214733573340       -1.88698343923507
C           -2.72445675903793        0.94160646446471        0.47346070288975
N           -1.87987089570873        0.79577933223232        1.46618151750719
N           -2.57959877547580        0.92380955519849        2.59714870876386
C           -3.82852232175004        1.14284691621697        2.25166962274145
C           -4.98238116333178        1.35737131376265        3.14352524567155
O           -3.97042788877810        1.16320361244282        0.92838986467934
N            1.55565168992247       -1.98708904391564       -1.77616876945996
C            2.85960823258402       -2.29788385451737       -1.40656048359610
O            3.47477010487208       -3.17323230391762       -1.97689670785505
C            3.36055367401129       -1.46970109494251       -0.29630583551797
O            4.60633111432653       -1.75372561717982        0.07653842591065
H            5.59515663307129        0.91006074610893        3.10153722252153
H            3.93995692873654        0.92248288487232        3.78680059936077
H            4.41844348320372        2.16278611410574        2.59583676800224
H           -1.40755148543759       -1.61761907775336        0.22241437372224
H           -1.17482977134699       -2.78420972615566       -1.09104288066698
H           -2.53915714123451       -1.65887790907265       -1.14930777056122
H           -1.82284830975845       -0.47408789035714       -3.36062559436119
H           -0.07962421554806       -0.29792793020933       -3.65605044653272
H           -0.78780450992745       -1.90239705215615       -3.42093586104515
H           -0.45983026383795        0.63892389399273       -0.14731232496086
H           -0.86003778423644        1.79836704719807       -2.82423230043899
H            0.72383661060027        1.49818045964636       -2.03638045707820
H           -0.44219623971394        2.63350580424822       -1.30314591373778
H           -5.84500093753145        0.80449271361469        2.77362727528628
H           -4.73361979053127        1.04006005139086        4.15377596044197
H           -5.24263404285413        2.41749625617818        3.15490436817979
H            1.16731160250068       -2.52949089727284       -2.53324279172508
H            4.91790506396894       -1.19281757565267        0.80909610699957
