20
 energy: -38.277532606546 gnorm: 0.000830628264 xtb: 6.5.1 (579679a)
C            4.12090446955852       -0.45574581281459       -0.23019866532182
O            2.72631993725684       -0.63179903099759       -0.24420929802544
C            1.98955208428099        0.51859190767148        0.26042956934317
O            2.65512026053618        1.52865560344802        0.66190691611621
C            0.65084552924634        0.31101223032977        0.20720057684361
N           -0.05805932005037       -0.83879624309370       -0.24713728349552
N           -1.32648914789587       -0.50462961263174       -0.05911777777458
C           -2.35145572701264       -1.45929422683484       -0.40608620604546
C           -1.52227148849344        0.69082499707820        0.45357392819236
C           -2.81726285887380        1.34357429531387        0.77520182791208
O           -0.32074149053955        1.31613371984982        0.66279872552542
H            4.50427931039711       -0.28266234113902        0.78683575931184
H            4.43573852706519        0.39080129326588       -0.85918013792160
H            4.57331302919171       -1.37050824764316       -0.62332257952166
H           -3.14144938332428       -0.96578693813495       -0.96987992407161
H           -2.77565642279822       -1.89598673119741        0.49849380308492
H           -1.89441498328373       -2.24022856296756       -1.01031133665184
H           -3.42350199193492        1.49210504896326       -0.12163080857136
H           -3.40174750649095        0.73994160206644        1.47262297108088
H           -2.62302282683458        2.31379904946772        1.22840293998988
