42
 energy: -83.581252603871 gnorm: 0.000216204150 xtb: 6.5.1 (579679a)
C           -3.64378807784998       -2.45503847647911        2.57908555564352
O           -3.53317088268220       -1.10222460546492        2.14905140223463
C           -2.36531140902887       -0.76802174393200        1.48177889928889
O           -1.34827761017657       -0.31280449031388        2.32943780157646
C           -1.20518880971963        1.09808632256745        2.42786131737799
C           -2.20092613413376       -0.80290986441943        0.10904732508275
N           -1.00195034747684       -0.25463606049954       -0.35355661623648
C           -0.78374242867048       -0.16172240813472       -1.62254872149331
C            0.50992739131411        0.46152368567967       -2.13119247505438
C            0.18513946713479        1.76509517211350       -2.88142180823200
C            1.24148144511976       -0.52484351555138       -3.06048752423727
N            1.32336002864196        0.75604208968798       -0.96110311114245
C            2.61685143533347        1.22674782745330       -1.02887122174557
O            3.12625801000388        1.67993417297144       -2.07930520481319
C            3.31755153719149        1.19053319869536        0.22383249242225
N            4.56445949249294        1.59517306428222        0.47367430107666
N            4.80342259467469        1.32420224483471        1.79250548165506
C            3.73368760914740        0.78423694411139        2.27909529437065
C            3.52572276329458        0.31036941648631        3.66990698936491
O            2.74103098780573        0.66131019630438        1.36452684683875
N           -1.68919377941263       -0.58058301098322       -2.54676419288819
C           -2.89890752901775       -1.22670405302285       -2.22162491854886
O           -3.61619176925630       -1.60735955553839       -3.18574595299562
C           -3.17723273659873       -1.37212706252401       -0.81380046486740
O           -4.22300679983531       -1.98885629661013       -0.40497349447300
H           -3.67323966156205       -3.13859133140705        1.72068615002678
H           -4.57743982138289       -2.54037147107861        3.13871068616038
H           -2.80838186938737       -2.73337518516222        3.23375828634215
H           -2.13676198029010        1.57403851014073        2.76130577854035
H           -0.90726605918205        1.53033352633040        1.46293885484742
H           -0.42250434774713        1.29439122502044        3.16353327610298
H           -0.47937673908752        1.55824822291521       -3.71869122578648
H            1.09816871021759        2.21950767718043       -3.26332441665710
H           -0.30514926381141        2.46666579534802       -2.20667166926781
H            0.61792037780990       -0.76278622667147       -3.92031263828197
H            1.46820295898625       -1.44559534015279       -2.52354268240506
H            2.17067873843193       -0.08496217079885       -3.41986686578149
H            1.02899015695167        0.29147446418634       -0.10725442370846
H            4.42902268510305        0.48621883011818        4.24891931828540
H            3.29595084876317       -0.75573530265692        3.67865703056661
H            2.69296907688925        0.83984490178249        4.13385066423146
H           -1.49378925901207       -0.49472731681849       -3.52954212339641
