46
 energy: -86.309125160904 gnorm: 0.000250685092 xtb: 6.5.1 (579679a)
C           -5.62336120699438       -0.96174094868277       -2.34334598494277
O           -4.39670958657694       -0.90150331151167       -1.59157167778576
C           -4.33010703466467       -0.03018373244633       -0.62209049136339
O           -5.21943408050748        0.73483405675872       -0.30382961777659
C           -3.01348550160288       -0.02641827925383        0.10352111547094
C           -2.82290840245824        0.88710080811884        1.17083111150323
O           -3.72042462585821        1.72754971457811        1.54232461021002
C           -1.56794027373980        0.82586284593929        1.96460709972899
O           -1.38764199922163        1.45895212358179        2.98254973946056
N           -0.65295816136206       -0.07353655677669        1.47681152633656
C            0.51733086578320       -0.25962384883552        2.33442088120689
C           -0.80960412668312       -0.83806280274609        0.28091207391906
C           -0.30280911069103       -2.27404602497638        0.44460842083460
C            0.05194682060564       -0.09065267585861       -0.97407708227087
C           -0.50642978876869        1.30869937152739       -1.17012686148032
C           -0.12690287226464       -0.93405943437313       -2.23132052617933
N            1.42241388191116       -0.10981163514613       -0.61457716111295
C            2.12915136990880        0.90551095884801       -0.00576611830191
O            1.64421760885364        1.92648145149548        0.42498351506685
C            3.55823307928062        0.55716819069305        0.04965884381121
N            4.09451608802428       -0.54133059696302       -0.40014345015127
N            5.42156014625895       -0.46175675586366       -0.14505011806509
C            5.62075802948716        0.68203092221267        0.44848698323057
C            6.90276030520093        1.23568962161399        0.93181708151004
O            4.48015116905216        1.36682025481581        0.59717655105511
N           -2.07811574558002       -0.85749567369801       -0.26520739291449
H           -5.49142285603215       -1.75542020400574       -3.07465934639523
H           -6.45352680855417       -1.18438788036493       -1.67109543778870
H           -5.79405771442519       -0.00360395518478       -2.83637663099044
H           -4.55256503727760        1.64711423253103        0.98491847977156
H            1.30822320892169       -0.75825127689991        1.78724852660328
H            0.22603028775197       -0.86263750073962        3.19567659945751
H            0.84979987845294        0.72124418677361        2.67605553385402
H           -0.66551946890800       -2.66033450895117        1.39577689813392
H            0.78176602158535       -2.32721962642409        0.42586416456727
H           -0.70852880679933       -2.88517632699610       -0.35785549486285
H            0.20563135480450        1.89119101059491       -1.75302221993872
H           -1.44492363332905        1.25126796394973       -1.71755088290528
H           -0.67789621232703        1.82678321886166       -0.22859820535903
H           -1.18330543884554       -1.06224683148836       -2.45667942093054
H            0.33900238524921       -1.91140331508127       -2.12951964760186
H            0.35400213933446       -0.41069425826123       -3.05787429442296
H            1.96500238583169       -0.91319746170064       -0.90457546405148
H            6.83745567850995        1.44234092722967        2.00004809712898
H            7.11772494284620        2.17416354605310        0.42009788892590
H            7.70290184583345        0.52398701706176        0.74341578575861
