42
 energy: -83.018001033278 gnorm: 0.000517042965 xtb: 6.5.1 (579679a)
C           -4.91787619022942        2.38789266189966        1.94322517026941
O           -3.84467251982199        1.58667507585641        1.44316400348396
C           -4.09246904060863        0.89335531929100        0.32858287220419
O           -5.15741727252122        0.92811174135380       -0.24269432279476
C           -2.90497473217747        0.09513857869595       -0.09999604353188
N           -1.81028139065577        0.19992175181510        0.71733763909480
C           -0.73639530374459       -0.44829691938599        0.42735821175108
C            0.47142683433948       -0.37369166980545        1.33545294929989
C            0.31336391945681        0.78489860287415        2.32406746986081
C            0.61033265779825       -1.71560788648871        2.07048419532044
N            1.64244776071887       -0.14825824732785        0.48071898784920
C            2.90472603977814       -0.07481285355153        0.96030461850638
O            3.23604064901777       -0.25734023603887        2.11695637029668
C            3.86181518194051        0.25147909602563       -0.12749777463638
N            3.56169335088451        0.48504072820176       -1.36997790288276
N            4.73386595006167        0.73735069168047       -2.01631973039699
C            5.67511622777694        0.64202201023826       -1.12598801343788
C            7.12942990184040        0.82724230649863       -1.32384345701388
O            5.18704826734870        0.33923998273842        0.08571342924366
N           -0.65897732908892       -1.25174250913126       -0.67176343011388
C           -1.68617644826501       -1.44225093980342       -1.57392362856061
O           -1.52422279721592       -2.18264387536447       -2.53275254772691
C           -2.89704953954900       -0.68802884252615       -1.23484939787275
O           -3.99633516362592       -0.74202549035634       -1.99480463798534
C           -4.08180669712827       -1.51852880438383       -3.18946978176772
H           -5.77060495033533        1.75534845259225        2.20221242046009
H           -5.22528929973117        3.11829153909365        1.19050402889506
H           -4.54171896747320        2.89503231036451        2.82946972679988
H            1.17490759493665        0.82903394008814        2.98730768758585
H           -0.58787283654173        0.63254449915037        2.91578652845479
H            0.22520662995812        1.72555899065187        1.78273814148489
H            0.80343010261246       -2.51336649084669        1.35616628979850
H            1.43131946498664       -1.66993865883780        2.78312116905725
H           -0.31302769535224       -1.93144728015402        2.60559775678087
H            1.49217844443796        0.10657276794100       -0.48336726778597
H            7.33792706679332        0.98929119800296       -2.37875801289883
H            7.47706703390372        1.68556179189202       -0.74827733467392
H            7.66708192145025       -0.05397890696289       -0.97358704632163
H            0.18860008668258       -1.76384862524096       -0.86540209832631
H           -3.94689047729116       -2.58174361617329       -2.97863124735251
H           -5.08707218565449       -1.34600156431270       -3.57642211711475
H           -3.34389724971650       -1.19205262025786       -3.92562487330383
