42
 energy: -82.932667000907 gnorm: 0.000205048186 xtb: 6.5.1 (579679a)
C           -7.09380738808435        0.06830544066267        0.43798289324774
O           -5.71501937227885        0.16438737901760        0.80577133056877
C           -4.82576062177022       -0.11619771715573       -0.14451904940029
O           -5.13682908852256       -0.43938205144843       -1.26853040198910
C           -3.40805191130163        0.01111046169674        0.31453996509285
N           -2.48747006810630       -0.24284654762163       -0.63400773926965
C           -1.19505319291371       -0.14826958581007       -0.31555461401115
C           -0.23206059534568       -0.44986121007277       -1.44733903942350
C           -0.50622073589312        0.50359981498793       -2.61860596798585
C           -0.41124421833543       -1.91289694680014       -1.87940697276387
N            1.11806710548636       -0.24331627190181       -0.93167237745158
C            2.23400653031476       -0.40648423542503       -1.65112248427419
O            2.30315402685980       -0.73461147138220       -2.82501675345190
C            3.46750874505121       -0.13819243015804       -0.85395687477589
N            4.72535577614803       -0.22128586782459       -1.33442009636550
N            5.53864565150411        0.06384918821266       -0.39037576052807
C            4.79887370142803        0.35738509975079        0.80635437390688
C            5.13207498342840       -0.65635899512365        1.90362388290664
C            5.04649657190101        1.80103731974746        1.24923133105740
O            3.43469743002326        0.20091175460081        0.40579147940645
N           -0.69123307170015        0.16543679936783        0.85916950938404
C           -1.54768402593211        0.43602476261136        1.88878599944883
O           -1.18905659043350        0.73899068021155        3.02739440905320
C           -2.99086392649081        0.35506716659687        1.59004966421248
O           -3.80266751135189        0.62620061498572        2.60447369871239
H           -7.67122793019123        0.32092824384336        1.32478769455402
H           -7.32579578623739       -0.94809051068395        0.11071701808409
H           -7.31616685290561        0.76762768191775       -0.37172714995411
H           -1.55095534721283        0.40743612352932       -2.91129580577608
H            0.12924414543119        0.25579081936526       -3.46671798514780
H           -0.31490356825886        1.53129812914902       -2.31426614808246
H           -0.17163580466984       -2.57594247668142       -1.04980978573985
H            0.23955063412707       -2.14123495859990       -2.72137401628116
H           -1.44850462222008       -2.06891999216018       -2.17262688382814
H            1.17168484080221        0.02927660278634        0.04607807059692
H            4.93369787825703       -1.66192181220260        1.53898459617007
H            4.51364812086347       -0.45498293866897        2.77477262280827
H            6.18221716787127       -0.56193229710552        2.16748509159944
H            4.43883707558127        2.01622893671560        2.12461233060072
H            6.09897308676141        1.92132163164857        1.49270088710368
H            4.77693343314259        2.47828577334264        0.44185852926475
H           -3.25145367480747        0.83544089207614        3.38718152871523
