42
 energy: -83.620702046120 gnorm: 0.000580893215 xtb: 6.5.1 (579679a)
C           -4.92209466001537        1.84678820774200        0.14508887671952
O           -4.40403813929071        0.55230277902723        0.14423071138427
C           -3.79465686002066        0.07768797874474       -1.24622862665785
C           -4.97832087462947       -0.75382604888909       -1.83983989801696
O           -3.42068218284892        1.06459393542012       -1.99141047224886
C           -2.61521959658629       -0.83370956154888       -0.74437976532868
N           -1.69575934010140       -0.12690702072656       -0.02295635704766
C           -0.62038148217379       -0.67836496324029        0.42438563985839
C            0.39498335979172        0.11552337276325        1.21987204181830
C           -0.06719348943875        1.57153857654426        1.32832064134588
C            0.59618937826353       -0.49769795451260        2.61277049038813
N            1.67161184327045        0.05624591448241        0.47543305478365
C            2.80460526381347        0.65819308449695        0.86253343374045
O            2.96027376990170        1.32580717492718        1.87387418660298
C            3.89481579123521        0.42459886122110       -0.12851069892413
N            3.78182727410313       -0.21363396072989       -1.25377599137174
N            5.00726030003105       -0.17621554039552       -1.85303219081874
C            5.78756746779953        0.48273696593186       -1.05406793199206
C            7.22131757878286        0.79324689323757       -1.24397678748336
O            5.14539527254308        0.89067113547379        0.05112539311289
N           -0.34427036205222       -2.00929635718945        0.17865010638691
C           -1.18562124597576       -2.82905415926425       -0.53787988843691
O           -0.85724188865450       -4.01828683677270       -0.69709885785386
C           -2.43266588693863       -2.19283767084460       -1.06153175298516
O           -3.22541204650346       -2.91781385943368       -1.74102071527277
H           -4.73614743956491        2.31924456881982        1.12127621118508
H           -6.01454003467486        1.86359256198220       -0.02837452169722
H           -4.45261747265444        2.48338528133916       -0.62769840330985
H           -4.67190001211249       -1.19844667109631       -2.78586358745424
H           -5.31341093875018       -1.53406163819928       -1.15840895313941
H           -5.80408561713657       -0.06758247156614       -2.03208641576860
H           -1.05179828279038        1.59718490305990        1.79425802882773
H           -0.14013081915921        2.01426017253179        0.33505152813139
H            0.62750737653613        2.15209737359611        1.93097741523497
H            1.29445602453239        0.09907792006759        3.19637378792529
H           -0.35934970821151       -0.53214822719027        3.13460702331334
H            0.98902499774333       -1.50926040634659        2.52792510922679
H            1.69761964475384       -0.48476504482821       -0.37832061146092
H            7.38671816134015        1.86628941336340       -1.15602693153464
H            7.81385017884119        0.29746750641896       -0.47534508383977
H            7.54327411927676        0.45208740167764       -2.22430380916994
H            0.48923957771467       -2.43070859010574        0.54885157182239
