20
 energy: -38.336841877775 gnorm: 0.000450836068 xtb: 6.5.1 (579679a)
C           -1.81771756141433        1.51928447613218        0.32749553070762
O           -1.70810796868048        0.44409017887489        1.22006239576444
C           -1.22384149128250       -0.87813376194145        0.70060711736294
C           -2.19775892777340       -1.32037773349709       -0.44619810340645
O           -1.07734215202643       -1.73728903004215        1.64667555166361
C            0.15583311167274       -0.58236269852973       -0.01142675176653
N            0.60701042509036       -1.19469826276813       -1.06358484137690
N            1.92804248473185       -0.81762961500414       -1.21683797805668
C            2.18624554111629       -0.01140197973521       -0.24263944727744
C            3.46966488079393        0.67684994287527        0.04014354907751
O            1.12039186243410        0.17910720824580        0.55801347550057
H           -1.85166462696810        2.44110998357564        0.91787648343031
H           -2.73472173387511        1.46986542820831       -0.27901938952452
H           -0.95844788550414        1.58418473289129       -0.35713362753871
H           -1.88334584216603       -2.30495189712766       -0.78824493123388
H           -3.20509523082517       -1.38791054584412       -0.04079376068466
H           -2.18388907429676       -0.63057446332898       -1.28694949239045
H            3.89708036589982        0.31545043167596        0.97574858133413
H            3.30830693486354        1.75001190461147        0.13428538233278
H            4.16935788820963        0.48537670072798       -0.76985974391775
