46
 energy: -87.015134173943 gnorm: 0.000765008305 xtb: 6.5.1 (579679a)
C            5.01592268271643        1.44747050540121        3.42309864150721
O            4.61223938006524        0.55778672820996        2.39015335401588
C            3.40254500430174        0.81484200204244        1.82615340179891
O            2.71592566207973        1.75965333903699        2.19841247817322
C            3.03434104402950       -0.11832238881722        0.76769097645536
N            1.79014706769136        0.09211032360219        0.22075282061010
C            1.32368641449966       -0.62957010792505       -0.74154687104179
C           -0.07805173117451       -0.26216017247343       -1.23764178647418
C            0.04141857844865        0.53276243446043       -2.54917596651301
C           -1.00186096391627       -1.48568824202476       -1.38895161568808
N           -0.62409700687152        0.63776258747950       -0.19861265554602
C           -1.98602809137822        1.02353548318422       -0.31214014167256
O           -2.29970178689606        1.81561863816352       -1.41128608013690
C           -3.55428566877952        1.57531618424029       -2.02917881997264
C           -2.79729769343436        0.83991914817247        0.78022858589322
N           -2.45099948493719        0.14949456617876        1.88922839054703
N           -3.55880099291519        0.15859735232155        2.70164351060916
C           -4.48909680354099        0.80970052160993        2.09578728600463
C           -5.87126156537444        1.06781725679002        2.57343050981706
O           -4.10128455404482        1.28575447879562        0.87217265038053
N            2.06608474719388       -1.65243979021577       -1.30721282972151
C            1.63329889769279       -2.48764825894772       -2.42159912464966
C            3.32464943847746       -1.98646780356939       -0.78667575368243
O            3.98471486220118       -2.93486111571893       -1.24453483950451
C            3.80288657548989       -1.16893701763311        0.27894711926458
O            5.03535603481042       -1.49050593069948        0.75667368226041
H            5.98307296569514        1.09878134524562        3.78191555478613
H            4.29185063584975        1.44228432973713        4.24406828792352
H            5.10888185178696        2.46833426473587        3.03928700511144
H            0.37780129509054        1.54585169101520       -2.32864070013659
H            0.75531908769404        0.07049341227127       -3.22715571272970
H           -0.92226884048866        0.58453482427378       -3.05028077655502
H           -2.03665694021050       -1.16181215759615       -1.26758777637020
H           -0.91463988845114       -1.94023832492185       -2.37137636007443
H           -0.78331928422440       -2.23181340696265       -0.62625601234463
H           -0.51308285703020        0.18287997290158        0.71250189022189
H           -3.71668962483965        0.50295165141038       -2.19317866972168
H           -4.38020605127947        1.97049775094372       -1.42579622555123
H           -3.53850552707738        2.08768039070254       -2.99308005638423
H           -6.59791728071062        0.61410494424915        1.89851409909778
H           -6.07133951682226        2.13932836774956        2.61080297433598
H           -5.99522816792280        0.64466079407078        3.56826879277557
H            1.08221289553078       -1.90622646382462       -3.15340510678545
H            1.01929061536605       -3.31401985339303       -2.06197414310449
H            2.52374741186845       -2.89815096135526       -2.89876546197101
H            5.35722717373753       -2.25166229292700        0.24125447475490
