46
 energy: -87.009706396029 gnorm: 0.000724144602 xtb: 6.5.1 (579679a)
C           -3.86487972657749        1.96951714497545        2.71527381206750
O           -3.10092546808104        1.92099741659502        1.51460722064783
C           -2.82703269496245        0.65496127292338        1.04251660812602
O           -3.22938452234568       -0.32918853909376        1.65892366297295
C           -2.10278407455525        0.63666207708138       -0.19588631646926
C           -1.46094704974789        1.69067501972865       -0.83014800248240
O           -1.49852360908192        2.98352853562821       -0.39241860260636
C           -0.54111466898332        1.44235664931232       -1.91800837642014
O           -0.09228074007731        2.31980988023487       -2.69851437475768
N           -0.09053315744792        0.13729069245908       -1.96175640016293
C            1.04654371989841       -0.14200884896295       -2.83783157912322
C           -0.72066329353840       -0.93011151347181       -1.31981593079980
C            0.10582174048320       -1.84273471049866       -0.42129005168919
C            0.75232282222630       -2.97229116206797       -1.24854274124111
C           -0.78330924268102       -2.47258088172807        0.66053978224184
N            1.17845406243082       -1.05776578058719        0.24188673717046
C            2.15337732486264       -1.58049829670371        0.99340485840218
O            2.26736424243626       -2.75772408972483        1.31595563440899
C            3.14748624401812       -0.56647975952259        1.44907243468269
N            4.14955380292190       -0.75728779230348        2.25238815284686
N            4.77853512332957        0.44686973064246        2.39158775198532
C            4.12148628051964        1.29602907846495        1.66588133654924
C            4.40811261452385        2.73614883417310        1.48307465346549
O            3.07752768593140        0.72173612196848        1.04389034329504
N           -2.05777063067642       -0.64400105386697       -0.86710595972686
C           -3.02854542910392       -0.71108064547470       -1.97843745518639
H           -3.31706063550723        1.50333705111205        3.54059981493785
H           -4.04416526314050        3.01992653044909        2.93869813591564
H           -4.81993446816510        1.45099156145689        2.58455387411774
H           -2.10104277427591        3.07712469530584        0.36275389434273
H            0.81998153101523       -1.00140101763644       -3.46821975482541
H            1.94281811015803       -0.34892170878715       -2.25023905248203
H            1.22863402682837        0.72960488169407       -3.46801801707415
H            1.14072907102472       -3.75923265760397       -0.60300291422583
H            1.56947856619880       -2.59232228638214       -1.85710287254125
H           -0.00479071272705       -3.39746327198576       -1.90517090118448
H           -0.20763675868568       -3.17872140274563        1.25803282137578
H           -1.19463724021114       -1.70586914909277        1.31533706597108
H           -1.60860352606234       -3.00116655908664        0.18546007860338
H            1.19897451018994       -0.06517023376744        0.05572005348701
H            4.56387967554282        2.95582891738218        0.42737766164776
H            3.56645487146952        3.33344757118633        1.83298813129161
H            5.29933035017206        3.00246337493935        2.04531213050642
H           -2.83662529599508        0.05594439407259       -2.73961853947237
H           -4.03410321815703       -0.57358385313119       -1.57903995430217
H           -2.94957617542529       -1.69765021759639       -2.43567085424697
