47
 energy: -80.199995157193 gnorm: 0.000249617171 xtb: 6.5.1 (579679a)
C           -3.91787843418740        0.39870060656783        2.36024959213442
N           -2.76924779284728       -0.08159830516392        1.59489024154531
C           -2.63465954493916        0.01831648267987        0.23176411688832
C           -3.69845011482157        0.67547241906973       -0.64521484670064
C           -3.35248925566552        0.43381153773745       -2.12384868610469
C           -3.72663326510562        2.18666376527038       -0.37706030389677
N           -5.02073093987814        0.11513206132500       -0.35651212209276
N           -1.57060837047422       -0.39923457702791       -0.37517809930331
C           -0.51881703064433       -0.96629141527263        0.28401627418466
C            0.68948269002209       -1.42527589443145       -0.62889378445215
C            0.80300104453909       -2.98094224481175       -0.41257906795463
O            0.59468084096754       -1.06452645900683       -1.87143907613523
N            1.90943322043759       -0.80039510203696        0.10137286021126
C            3.13190848002400       -1.02819395820936       -0.68690932593664
C            4.14858394403766        0.03609276971526       -0.37210139203988
C            3.95134965598272        1.34317338441572       -0.82085965130221
C            4.86366387717457        2.34530872840563       -0.52436663754167
C            5.97643610799150        2.01582630267641        0.22857390031830
F            6.87005944001581        2.98335199428815        0.52184774225006
C            6.21074050138718        0.73406320955897        0.68926651469790
C            5.28390209087212       -0.25444175593307        0.38300479913794
C           -0.60755696981733       -1.10470703424477        1.64072721947604
O            0.36764570398429       -1.66774458192026        2.41803634124289
C           -1.76127252325363       -0.64346427121658        2.36442633518800
O           -1.86401990071823       -0.73299365220901        3.59783197364439
H           -3.70027330728717        1.38735845279506        2.76748306219621
H           -4.09084346778981       -0.29118841468205        3.18750397775406
H           -4.80252101700640        0.43941318691345        1.73163946874382
H           -2.38692438731086        0.87737655616819       -2.36697768339877
H           -4.12039977418395        0.88173250142249       -2.75193189748820
H           -3.30746672220248       -0.63524497571075       -2.32896188200320
H           -2.73551246540776        2.61246616033082       -0.53244304519919
H           -4.42399363772742        2.66708473779424       -1.06185712828179
H           -4.04474255725989        2.40043965631690        0.64120762354438
H           -5.07911144870324       -0.83232153397871       -0.70634270754925
H           -5.72153261811454        0.65976415521471       -0.83699039595846
H           -0.14593091226299       -3.44128847015491       -0.68647407195945
H            1.57820758244536       -3.37026326147565       -1.07141078399425
H            1.04458901962682       -3.22959545997810        0.61926728249971
H            1.73033788154612        0.20579730766909        0.06189058672272
H            2.90093386472243       -1.00144937535124       -1.76675853877441
H            3.54210697700914       -2.01594695411380       -0.44431296493289
H            3.07531145081433        1.58203747866019       -1.41498491281026
H            4.72125543338343        3.36086823611607       -0.87033140895069
H            7.09605042855365        0.51690541298667        1.27245742782598
H            5.45615562443877       -1.26603950230572        0.73509949373067
H            0.05577859763160       -1.64401290486316        3.33872558082465
