16
 energy: -33.394297109492 gnorm: 0.000745347872 xtb: 6.5.1 (579679a)
C            2.40010342888282       -1.05043597397619        0.08319795095309
C            1.58395325932455        0.16486275749768       -0.06378094021652
N            1.99878336856597        1.39647385768115       -0.24280606789942
N            0.92122041000286        2.17183558919614       -0.33003972818347
C           -0.12584795745993        1.38994295450052       -0.20225669185734
C           -1.48409897972954        1.83052968598350       -0.23111264445132
C           -2.21984845449174       -1.11050799036203        0.23113939563966
O           -1.91731597755615        2.91987858709846       -0.36754608658413
Cl          -2.80463071665783        0.55819689401174       -0.03734747838692
O            0.25081328317245        0.10497206902023       -0.03078748291951
H            3.44548975955506       -0.78310289424599        0.22265939998765
H            2.29934028822346       -1.66685928541921       -0.81173518392242
H            2.04227013124280       -1.63520324466660        0.92959931394102
H           -3.12378944467583       -1.70244162773646        0.35409510994733
H           -1.65433198684135       -1.44398962047741       -0.63365032243793
H           -1.61211141155747       -1.14415275810560        1.13037045639037
