46
 energy: -86.321435580959 gnorm: 0.000930164634 xtb: 6.5.1 (579679a)
C           -2.41013684140849        2.50361503551499        1.56964461633564
O           -2.57352164271087        1.21517261121667        0.92856073996950
C           -3.23496882954291        1.12444195113217       -0.17294791371099
O           -3.87940848376155        1.93281892342744       -0.75703546473185
C           -3.06607272895611       -0.36876718400821       -0.80441973373470
C           -4.10659834927802       -0.52064775728990       -1.91368440848217
N           -1.74378724640255       -0.27259566398709       -1.32051283059728
C           -0.71362497549333       -0.72436716063697       -0.70831528186072
C            0.60766485998864       -0.55201306044400       -1.44551193099977
C            0.45210470086039        0.52326693809592       -2.53104912151957
C            1.01030340629842       -1.88296443115096       -2.09066992087021
N            1.65715545836048       -0.12369023401445       -0.52735422263352
C            1.44586494561525        0.91715067850785        0.31225517837337
O            0.35023669834882        1.42731021284831        0.49018553153259
C            2.66671466496672        1.34159620100701        1.02503251130318
N            2.80733250377669        2.30822132098372        1.87801519412454
N            4.11434611359256        2.31336541844292        2.25386174075983
C            4.69506405062962        1.34886080266553        1.60810597951587
C            6.11364278214567        0.93766459767321        1.66958379067567
O            3.83351952644196        0.69535288177779        0.81199766765119
N           -0.79586178760746       -1.43180896730470        0.49095178422244
C            0.35904108177963       -1.90239002238993        1.25887581649722
C           -1.99999951010838       -1.73298924530031        1.05885106720053
O           -2.15030587921435       -2.36882763613584        2.08622153003270
C           -3.19475638468826       -1.27438795982479        0.31254540675717
O           -4.33302636607100       -1.65669537859951        0.75168004852423
H           -1.37579365250477        2.81025592807900        1.41490440090619
H           -3.10152071025987        3.22867491230815        1.14194491034833
H           -2.60837495705913        2.35062681309410        2.62820993108631
H           -3.94972707910499       -1.47125685864793       -2.41745142451670
H           -3.98483060763859        0.29255923942299       -2.62583755456702
H           -5.10710586479245       -0.49167432358720       -1.48783864951129
H           -0.25956099302624        0.19168964778421       -3.28431487693301
H            0.09471084558680        1.45160449032550       -2.08789381162531
H            1.41843430189785        0.69572061802201       -3.00068558575524
H            0.23137002297320       -2.19949068622216       -2.78242860049739
H            1.15588686813494       -2.66207982192080       -1.34654268592652
H            1.93877727725253       -1.74798605101941       -2.64251321761040
H            2.59727754245577       -0.43376961259992       -0.71055412213624
H            6.18205639034375       -0.10345014047511        1.98410318728718
H            6.65082617976520        1.57011320575990        2.37241253354675
H            6.56558371162250        1.01892878034433        0.68116288071499
H            0.62093206532129       -1.14570995335842        1.99846671112167
H            0.06723181501204       -2.82047212274525        1.76691093522630
H            1.20206358437501       -2.09006792950557        0.60722662938258
H           -4.24915650791823       -2.22090600726668        1.55585063512012
