42
 energy: -83.615755087458 gnorm: 0.000183622806 xtb: 6.5.1 (579679a)
C            6.54545942396254        1.76344370117089        1.15967700173693
O            5.58599830845950        1.30770685533535        0.21998360412410
C            4.36629576114938        0.98156151206143        0.73155129677283
O            4.15119145466011        1.10171910602845        1.93425720652852
C            3.40530027466174        0.49708553404726       -0.24289459946307
N            2.18745390128524        0.16110489821209        0.32848687263352
C            1.23331165723185       -0.29211681894019       -0.39832603950330
C           -0.08148330243432       -0.73868737635383        0.21091888472935
C           -0.40940049265327        0.12429713744147        1.43838611584293
C            0.07361173375436       -2.21138818224959        0.61999336347179
N           -1.11984847911059       -0.62261794449905       -0.83098553225848
C           -2.43171228940959       -1.08678416462253       -0.42969448828302
O           -2.69586560015004       -2.43172185651249       -0.83067350955605
C           -3.43511387545287       -3.18234847064852        0.10889369324022
C           -3.46482616972904       -0.20430495469977       -0.25173896897208
N           -4.78662932457690       -0.46767647772649       -0.09571817962582
N           -5.38052823024073        0.74254337659380        0.21073407105912
C           -4.46465570031932        1.64287561526004        0.23597590758315
C           -4.63336802819059        3.09648134476677        0.50666403237536
O           -3.20900749736823        1.14720095329585       -0.03955556211870
N            1.37855409047742       -0.47330576492558       -1.75677940269274
C            2.51545535868292       -0.18060764606639       -2.45188850875802
O            2.55833957304449       -0.36206006784019       -3.67100119198747
C            3.66637545606271        0.35601846411879       -1.63058728343975
O            4.73636598009222        0.63007092752785       -2.21336466553814
H            6.20541202030459        2.67982200046787        1.65318589816315
H            7.46430433625583        1.96334939791517        0.60953056506723
H            6.73320633443687        1.00319509716146        1.92504080088514
H            0.42107602946584        0.09781322266389        2.14402119190010
H           -0.58265623959281        1.15629885492032        1.13441172333047
H           -1.30767992133485       -0.25261321432907        1.92640378051848
H            0.94995360847297       -2.33035468249469        1.25679483505655
H           -0.80491366845481       -2.54471289725640        1.17055993217093
H            0.18960690091883       -2.83399972302071       -0.26729848949049
H           -1.20161137495608        0.36711228542836       -1.06637386946098
H           -2.96793360817023       -3.16399052496245        1.10509362907760
H           -3.46806868079774       -4.21603329503934       -0.24623639369232
H           -4.46491737681116       -2.80428913539638        0.20513552210814
H           -5.68833761934210        3.30958696738916        0.66783819592119
H           -4.27587046459845        3.69056092034760       -0.33625200866666
H           -4.07193059453596        3.39859337756881        1.39258203315890
H            0.57908333483036       -0.81882735213447       -2.27362246396133
