42
 energy: -82.977072628259 gnorm: 0.000874367309 xtb: 6.5.1 (579679a)
C            5.88917316645195        1.82424054095488       -0.76922091824181
O            4.75209252771396        1.02002873697982       -0.48429842750336
C            4.68519487230970       -0.17054992949719       -1.15436456417841
O            5.56325869402560       -0.48626233058694       -1.94054146213570
C            3.50007082843104       -0.93874211614557       -0.80604520397242
N            2.64933153880038       -0.33512006063500        0.09842532200875
C            1.57996155753987       -0.92425041118364        0.48776771040890
C            0.66751361295291       -0.23417357307988        1.48665944700537
C            1.28475789987560        1.10542566732616        1.89049702883221
C            0.42120526676620       -1.09356172609753        2.73009321965591
N           -0.62124781742842        0.08721591266631        0.82300475061865
C           -1.60796681300756       -0.77524530511935        0.57131818015894
O           -1.63080405232394       -1.97113799991788        0.78426658269283
C           -2.78473677923812       -0.08066361558746       -0.06372215490687
N           -2.85369868921647        1.14814814398029       -0.48595432794855
N           -4.10520714732980        1.28022905187780       -0.96340561973578
C           -4.55028021468733        2.54474214392171       -1.50938010092391
C           -4.76194456346945        0.14684113522526       -0.82199836347991
C           -6.15244390483392       -0.16119654770547       -1.19186508462063
O           -3.94964608690156       -0.72433937981425       -0.26328443738036
N            1.22954934469567       -2.17632430979898        0.03112698090528
C            1.96530428109382       -2.88449744157694       -0.88553464913488
O            1.57403433170595       -3.98564841083393       -1.26252130300012
C            3.23918503046151       -2.22016856795636       -1.36367330676660
O            3.95039415257928       -2.81747608036669       -2.18851510802190
H            6.81262707412570        1.30028053703436       -0.50036366715217
H            5.79373234734742        2.73103667268811       -0.17351744366682
H            5.92481736710104        2.08305328864816       -1.83250291074883
H            0.62603113461442        1.62930363570681        2.57973449139409
H            1.45206534752778        1.72393576043700        1.00978186284144
H            2.24399688203509        0.93040222062093        2.37577286828776
H            1.36142155964242       -1.21580978274540        3.26633416347246
H            0.03689619031579       -2.07695086595861        2.46981842337894
H           -0.29581434226198       -0.59848687464106        3.38227155926533
H           -0.77611158531181        1.05511046841712        0.59519979287310
H           -3.72070184304351        3.24430190655196       -1.45176814638653
H           -5.39411745558541        2.90320488279510       -0.92256016855842
H           -4.85725790913760        2.39622900951051       -2.54333001748254
H           -6.38831564329902       -1.18689375312638       -0.91249138195175
H           -6.82963748865075        0.52690979916506       -0.68306698417949
H           -6.28972968702443       -0.02793142925030       -2.26667084269463
H            0.36704701463322       -2.59520700287318        0.34668921097514
