21
 energy: -31.513253504327 gnorm: 0.000643588279 xtb: 6.5.1 (579679a)
C           -3.10922544036419       -0.04678735921892        0.04346606646410
C           -1.61750397430254       -0.03014877465246       -0.11638193010003
F           -3.78889525057128       -2.27642039451345        2.03783997487981
C           -0.80421067994678        0.50079249245479        0.88526736078998
C            0.57581404977877        0.49750753743514        0.75550835081718
C            1.18239743857927       -0.02878429494350       -0.38284228893643
C            2.68764714922017       -0.04969284891605       -0.51936570969592
N            3.30543486480925        1.02960259051549        0.25605274792425
C            0.37432517206058       -0.55614887930883       -1.38654551025045
C           -1.00759769164307       -0.55876815073046       -1.25266124519663
H           -3.46715961794718        0.91200272075076        0.42181963928420
H           -3.60175366707089       -0.25570644189755       -0.90647184358837
H           -3.39734314464464       -0.82795836405332        0.76573065632940
H           -1.25425914629668        0.92947056971798        1.77613735466083
H            1.19651657412348        0.91968387715979        1.53983840607815
H            3.06944083214982       -1.00280170101551       -0.13165034860729
H            2.97156392404808        0.01173300873196       -1.58063827166615
H            4.29950533000762        0.86294528455862        0.29936932870321
H            3.17494541470811        1.90357053188117       -0.23573464824795
H            0.82712264478965       -0.96436190198085       -2.28412716929764
H           -1.61676678159370       -0.96972850191010       -2.05177192044901
