46
 energy: -86.298010235115 gnorm: 0.000676960761 xtb: 6.5.1 (579679a)
C           -5.94952494007948       -1.27412346381733       -2.01574398357004
O           -4.80081700625994       -0.79111855248726       -1.30765198338395
C           -4.87082877362079        0.44535576708835       -0.83979649536261
O           -5.84328626339253        1.16371995856986       -0.99067877235184
C           -3.66085922506289        0.88448854741174       -0.10636498462811
N           -2.61872615643650        0.00611807925863       -0.01407565187867
C           -1.53861369517720        0.32626897782062        0.62042540933161
C           -0.47100512280133       -0.75757785768091        0.68193881759904
C           -0.42579603597647       -1.36309578200242        2.09128147025826
C           -0.79126357499323       -1.85151067756780       -0.34521789045296
N            0.82465807331041       -0.16026318248117        0.30287683518129
C            1.98638821951029       -0.82141893023804        0.36770886498201
O            2.18569233592410       -1.92746993456299        0.82921414755673
C            3.10016801732890        0.00186146645053       -0.19935162149055
N            3.06405648533227        1.17449527224028       -0.70848561906080
N            4.32719472889193        1.52842245029370       -1.09193142227643
C            5.12959878574574        0.57197747038495       -0.81610820922651
C            6.58073522723117        0.48034688325962       -1.03592200794751
O            4.41034438781836       -0.47579651007291       -0.22741396378151
C            4.88007330462175       -1.77426796012613        0.26254853017322
N           -1.39735544057813        1.54104649123710        1.23700097266968
C           -0.22467898261604        1.97657507826060        1.99842441977522
C           -2.38910861588119        2.52501260260885        1.18960497692483
O           -2.21145422386366        3.60240455898068        1.73492325031028
C           -3.59277139784248        2.13226023959024        0.46074231855142
O           -4.56685379588458        3.03925259435722        0.40300185119505
H           -6.13310310456551       -0.65305734380148       -2.89525411223455
H           -5.72303297941527       -2.29605140846095       -2.31191409206623
H           -6.82587658622292       -1.24957641631895       -1.36404894494866
H           -0.04930137877926       -0.65044701429672        2.82065978732605
H            0.21225928822242       -2.24378268707391        2.10262000514830
H           -1.43565488786859       -1.65770393829343        2.37504138585873
H           -1.74823844054773       -2.31116942042196       -0.10488619479123
H           -0.84493544735687       -1.42156937404955       -1.34380286147310
H           -0.01201297349023       -2.61022216983579       -0.32172002416171
H            0.80628425414069        0.69792087806637       -0.22778410082518
H            6.92128753204571        1.40736664024659       -1.49462929435939
H            7.10144541140975        0.32946962427217       -0.08966265341493
H            6.81498665367629       -0.35827053456465       -1.69250030672355
H            5.94850984526560       -1.80880762098872        0.07632844428615
H            4.65132379736942       -1.82157755770305        1.32488603119897
H            4.34733768114154       -2.54245075839874       -0.29374559852566
H            0.20834889651677        2.84391068834289        1.49953822749206
H           -0.55298101036797        2.26939482921279        2.99638450539475
H            0.51098916504459        1.18787297490437        2.06822440013121
H           -5.33360003146857        2.68578802238552       -0.10522186240854
