42
 energy: -82.989966767623 gnorm: 0.000419693472 xtb: 6.5.1 (579679a)
C           -5.21083454043322       -1.97955879991157       -0.46416856489715
O           -4.98622195416378       -0.59354016149502       -0.74143167382242
C           -3.87083883373185        0.06593922435873       -0.52231859224860
O           -3.74511047864468        1.16164561136832       -1.24994810463581
C           -4.75040865599717        1.48614644417967       -2.21316682626840
C           -2.81054261253089       -0.24146473242067        0.34642812505080
N           -1.67684021778655        0.53539626266934        0.10612550414562
C           -0.61611425831793        0.37546129608743        0.79748737713523
C            0.59833612154026        1.24429962235810        0.54795545673641
C            0.74415384875149        2.22647917740387        1.71951984088280
C            0.44434963129093        1.99197485704209       -0.77952121922721
N            1.76265348497501        0.35134038164988        0.48711514406954
C            3.03041604169849        0.79186651948583        0.32495186748336
O            3.38607183632188        1.95606992304508        0.32832568457304
C            3.96334026896657       -0.35137671379113        0.14937279756508
N            3.63249097402811       -1.60614581294524        0.08351048026315
N            4.78668620290609       -2.30796824258941       -0.09278426604722
C            5.74844504518809       -1.43561779443177       -0.12537618974353
C            7.19569066648063       -1.69291454508939       -0.29289471948738
O            5.29169020756736       -0.18314464775831        0.02115349505595
N           -0.52250576498479       -0.55104064262264        1.81513320204482
C           -1.55815825481234       -1.35660538443112        2.20699590885442
O           -1.41342373692877       -2.17716271927713        3.09404918991560
C           -2.86783588703964       -1.14171041647517        1.46429124799261
O           -3.88130862694384       -1.69906614874463        1.88280194924999
H           -4.27532087320823       -2.53842897340312       -0.49319191218497
H           -5.88249777644019       -2.33256697941990       -1.24743977207353
H           -5.68829355258320       -2.09157757903438        0.51045855795979
H           -4.39677272938255        2.37671485842606       -2.72931696977043
H           -4.87765256041105        0.66330767160241       -2.91932243710517
H           -5.70032770473598        1.68949837421287       -1.71433217008410
H           -0.17141115697671        2.80855956191905        1.81436537663988
H            1.57750349036055        2.90385669655708        1.54459908073303
H            0.91565119473309        1.68200684277779        2.64611780597386
H            0.33467647962937        1.28128137048216       -1.59693841455685
H           -0.44623613091362        2.61711245738899       -0.73863788884549
H            1.31584598833785        2.61865997112721       -0.95878638418845
H            1.59641342606490       -0.63535220103971        0.35512082367683
H            7.36326617222787       -2.75808385312737       -0.43274131997567
H            7.73870854950388       -1.35103111015811        0.58871468385702
H            7.57425287831454       -1.14529747830550       -1.15603809064858
H            0.34801579807665       -0.65795818765843        2.31279991595472
