42
 energy: -83.002706625171 gnorm: 0.000353420291 xtb: 6.5.1 (579679a)
C           -4.92134049213914        2.11590624739771       -1.68449757234131
O           -4.41425870810448        1.25120768117148       -0.66885970037440
C           -3.08499652372589        1.10765684067533       -0.62888507784210
O           -2.36193236745245        1.68513137386257       -1.42603064279952
C           -2.63039929212604        0.17868004481373        0.41340658215001
C           -3.51457313262369       -0.78692309561600        0.96939359316718
O           -4.72948125720987       -0.85670205263513        0.77628800337551
C           -2.87023276398663       -1.82728276409718        1.85090901677372
O           -3.46194202378679       -2.68776872721804        2.46969892532259
N           -1.48529586169952       -1.78554484140420        1.89683978931637
C           -0.68899686052058       -0.81854683288979        1.38837756550447
C            0.80247848252025       -0.97023341242511        1.66677026484093
C            1.20425869595986       -0.17550142551140        2.91487939836337
C            1.18913874001460       -2.44564903490080        1.86978490878775
N            1.56044559312893       -0.48071591513103        0.51813486886984
C            1.33312455797312       -0.98548674274489       -0.72052207262326
O            0.41252137184150       -1.73689430152290       -0.99134817444740
C            2.29362666137521       -0.48540735318626       -1.72710897875283
N            2.35043982896928       -0.77194585237791       -2.99034306923393
N            3.39456576343558       -0.06785770101105       -3.50615473400125
C            3.91176910745864        0.60800826226429       -2.52683990211726
C            5.06052540234994        1.53770051609206       -2.56933583108563
O            3.26071722113767        0.38892180759796       -1.37318912657723
N           -1.25648111573354        0.16678071793335        0.72596132924005
C           -0.48446840698790        1.36520374042977        0.37835072608217
H           -6.00139828693094        2.15355859680461       -1.55302633869065
H           -4.49400691862889        3.11590685664477       -1.57673060027169
H           -4.67423290913817        1.72645986469782       -2.67575589890658
H           -1.06767778929083       -2.50629294521541        2.46392882233977
H            0.63553453608934       -0.53527615531360        3.77043354944980
H            2.26424113910441       -0.32646002634782        3.10839785108500
H            1.02123972636780        0.88954843274910        2.79556832057308
H            2.27463439420741       -2.51657519888799        1.84570893330366
H            0.84956103241076       -2.81060730156952        2.83669176755079
H            0.77824555493111       -3.06690092798319        1.07538207044094
H            2.40974421553881        0.02595571904329        0.69818425350632
H            5.71657518017588        1.35439018323673       -1.72019889014162
H            4.70527199036661        2.56678051470076       -2.50473035457892
H            5.60838037149808        1.40603394632506       -3.49932565405608
H           -1.11867083235035        2.23803038064140        0.51050858951481
H           -0.14569150809484        1.30863524077609       -0.65444901377988
H            0.36903748366212        1.45407764011285        1.03703550305633
