42
 energy: -82.954969243013 gnorm: 0.000669539121 xtb: 6.5.1 (579679a)
C           -5.39140581144574        1.18969170311401        1.57943049554158
O           -4.76881932043725        0.42522983927188        0.52817307491533
C           -3.46438383947905        0.42681893492170        0.48591462050676
O           -2.72001857270041        0.98618765548881        1.23182855806264
C           -2.94976236557391       -0.45014165931641       -0.75173744528247
C           -4.00372907476722       -0.47097891988747       -1.85834629675940
N           -1.75452735630368        0.19554960569335       -1.16790147410553
C           -0.62373662100357       -0.17438212570911       -0.64646321348601
C            0.57868491270310        0.66640743587564       -1.04842157339943
C            0.80168983903147        0.51761440038722       -2.56039432470155
C            0.29926626306058        2.12955799410836       -0.67626089505685
N            1.74146890684180        0.17613736567714       -0.31780074762544
C            2.97535780680680        0.69119288147266       -0.43133522295496
O            3.29470734858953        1.63071886935392       -1.14313179762447
C            3.94075888090586       -0.03529505331256        0.43897185918055
N            3.66686256181496       -1.02022434977155        1.24001886091310
N            4.83928040505149       -1.37944683919666        1.83691518672271
C            5.75316987864832       -0.59080661516104        1.36002253707894
C            7.19596782892715       -0.57732692363758        1.68804006663259
O            5.24896297745158        0.28037042673465        0.47348633769547
N           -0.38799155704525       -1.21339107448100        0.18738307638014
C           -1.37880031899019       -2.05324285784146        0.49264225236842
O           -1.31896118866613       -3.08929664200881        1.15962772092616
C           -2.72355953757618       -1.71016677254787       -0.05327795762698
O           -3.67065815107735       -2.52670974907095        0.24199734992817
H           -6.46285199219235        1.05786363632258        1.45306064119244
H           -5.11568179438822        2.24056452501745        1.47994904822689
H           -5.06422943220055        0.81003883732824        2.54845635019517
H           -4.25148589775944        0.54802001616483       -2.14532364101642
H           -3.59353899316676       -0.99500287680444       -2.71931964542649
H           -4.89856330819765       -0.98391052757050       -1.51489833551393
H            1.62048926446935        1.15683504630377       -2.88594663910238
H           -0.10843715142867        0.80640757470658       -3.08319050599706
H            1.03714871533705       -0.51778072425741       -2.80279744128324
H            0.17648850749231        2.22141106345485        0.40228643565807
H           -0.61997496096929        2.44900531160753       -1.16426874822858
H            1.11943839064802        2.76700364833041       -1.00127422258946
H            1.58355550412411       -0.61745568274533        0.29613766985792
H            7.48305070978155        0.40263317354441        2.06858701590742
H            7.78373699067977       -0.77584120981865        0.79190158365162
H            7.40758642643987       -1.33616718333168        2.43719544126102
H           -3.27655387343577       -3.25769515840439        0.79214894497944
