47
 energy: -80.202609926478 gnorm: 0.000401278722 xtb: 6.5.1 (579679a)
C           -4.25870815073085        0.83214800387373        0.29669030805363
N           -2.80935553998073        0.89827473180698        0.28739868536712
C           -1.99545311258775       -0.13088836381890       -0.00898060007142
C           -2.45222155306511       -1.60490936077043       -0.03159801285613
C           -2.89846052430545       -2.05379995042489        1.36811993685279
C           -3.53514526588803       -1.90489328969608       -1.07767021217486
N           -1.30086246965017       -2.44176364870319       -0.38346793296487
N           -0.73003046888398        0.02428047290763       -0.27822443065158
C           -0.20731174304051        1.32629986203076       -0.35200432557533
C            1.09619370773995        1.44999385786657       -0.99835543396956
O            1.71815073909491        2.52381576900017       -1.10137473000996
N            1.57896285945920        0.29684748244608       -1.52640675043702
C            2.92304131600791        0.20687956595539       -2.06442687135978
C            3.91321948459063       -0.22734313244620       -1.00282593172499
C            4.18788746539246        0.60864564921893        0.07910236406583
C            5.08254246735012        0.21807233512325        1.06437957737651
C            5.69384311084093       -1.01732130072352        0.94342151425685
F            6.56570001900825       -1.40237778804013        1.89379615475314
C            5.44888255712482       -1.87027564407334       -0.11608079154773
C            4.54758742949298       -1.46329924093744       -1.09167939054789
C           -0.87171855939822        2.40367981062031        0.13830650232115
O           -0.37665575591413        3.65429925474779        0.06297575600070
C           -2.22417556012588        2.26818705551092        0.89094256349689
C           -1.86514784787339        1.88707337297683        2.37594948567933
O           -3.05674510863372        3.23791830554591        0.77044036409515
H           -4.64239897190655        0.14144701580921        1.05183574232849
H           -4.64241204938243        0.54301372231879       -0.68415020028557
H           -4.63602136184853        1.83554370317198        0.52545406799855
H           -2.14349321259184       -1.78158546067766        2.10617982352772
H           -3.01582027206367       -3.13786662808967        1.37490286223812
H           -3.84673639075424       -1.60440368237235        1.65588865767160
H           -3.54953580165080       -2.97870905194334       -1.26825954792887
H           -4.52519686266447       -1.61221491694641       -0.73491652588580
H           -3.31459616467002       -1.39210676856917       -2.01395611750788
H           -0.96387137912728       -2.15920614367889       -1.29803941563850
H           -0.54721064046209       -2.24516805519066        0.26828365769536
H            1.09387618885983       -0.56048945317269       -1.29392945065770
H            2.92203162085835       -0.50488353259478       -2.89433384046145
H            3.19689560979451        1.19678999566708       -2.44731300752317
H            3.70130822443238        1.57565877803060        0.14829395583719
H            5.30842607444796        0.85688395652695        1.90846478063186
H            5.95047079396441       -2.82698810192590       -0.17673855702912
H            4.34372057115723       -2.11749020968024       -1.93134977403374
H            0.50195929989746        3.61521643979190       -0.38845995337006
H           -1.22756324942374        1.00664102541476        2.42051459237447
H           -2.78733219831391        1.69743773523047        2.92237764934641
H           -1.35052432457736        2.73293382288309        2.82998680224309
