42
 energy: -82.972375709773 gnorm: 0.000601494085 xtb: 6.5.1 (579679a)
C           -6.20441554907028        0.03398647769003        0.55896917038295
O           -4.86030439832240        0.17590126838411        0.06996987249760
C           -3.93217654390052        0.48725071388580        0.96297470627304
O           -4.14090120620143        0.67861374091590        2.13203981544566
C           -2.55509023573112        0.55331093213901        0.34343620560045
N           -1.57071734360576        0.27374855518568        1.10702452092840
C           -0.28726299963286        0.28046170006824        0.54009417747234
C            0.75225003715862       -0.42968925154874        1.36399876388729
C            0.34876050521749       -1.90707588650203        1.49157828572987
C            0.82854052640801        0.24019139706485        2.74502533304520
N            2.02565286653956       -0.31093209680035        0.66545946618345
C            3.17855221278590       -0.82277825700314        1.13422195482414
O            3.30539921755580       -1.42808601313536        2.18696772797004
C            4.32935914918432       -0.56890338406388        0.22969882623759
N            5.57072009561111       -0.89278365083626        0.41898946282945
N            6.26368967064433       -0.44940259157715       -0.66754578627786
C            5.40265541219831        0.11753289570271       -1.45398618227492
C            5.65477825056966        0.75791947637531       -2.76320920426182
O            4.16021458408674        0.07761390904901       -0.94433287562094
N            0.01403528349460        0.86713748282640       -0.55265260165175
C           -0.99242071266615        1.51280851081092       -1.29657132661185
O           -0.75525267437765        2.44654457759462       -2.01044969813844
C           -2.36805244042138        0.86100778213972       -1.13419220014476
C           -2.36447281515400       -0.49224699669288       -1.88336477600367
O           -3.33339137437122        1.72700940701835       -1.64988228959592
H           -6.21895779142656       -0.66009424392147        1.40109958907179
H           -6.79248705156816       -0.35329282907235       -0.26841669003444
H           -6.58311976852198        1.00636925244814        0.87836934343634
H           -0.64795491022248       -1.97286341988918        1.92388646735296
H            0.34410297750784       -2.37545490084861        0.50909215162430
H            1.05541919838789       -2.42872000805095        2.13456432566530
H            1.17511179713833        1.26715046460866        2.64135672755954
H            1.51712144210962       -0.30898841032264        3.38416755194485
H           -0.16094038354175        0.23856951503354        3.19898410316402
H            2.00948489866796        0.16046089233711       -0.22937458819088
H            5.40242907397228        1.81731718234851       -2.71401270498541
H            5.02979159658607        0.29855475434447       -3.52837432937473
H            6.70295211655998        0.64596069939432       -3.02970335236298
H           -1.55095706893260       -1.12022813470430       -1.52780908958829
H           -2.24392967685262       -0.30153141201967       -2.94786986530636
H           -3.31326734687149       -0.99606767374476       -1.71403484697931
H           -4.19494862099398        1.29372057335064       -1.70618814174408
