20
 energy: -37.628722255605 gnorm: 0.000765735961 xtb: 6.5.1 (579679a)
C           -3.59649035512659        0.58550720594254        0.32760761725382
O           -2.79841279312001       -0.59214604644445        0.07495121564581
C           -1.53638948172281       -0.54524484241220       -0.03067386124088
C           -0.80664052200897       -1.79666088666189       -0.28400652339310
O           -0.97356040806816        0.62330982769672        0.09475052974512
C            0.34272888010690        0.92433410438796        0.02634640726025
N            0.81688769109331        2.11529379629230        0.13494152208064
N            2.16749470773612        1.97908220063925        0.01577826856061
C            2.41922154901533        0.72096430891499       -0.15650588535892
C            3.72728710055880        0.06286453659450       -0.33820813873251
O            1.27833696411529       -0.01554658674581       -0.15968162118674
H           -3.33973700215963        0.98109228666587        1.31056889906989
H           -4.63082685247688        0.25095123654004        0.29442773214643
H           -3.39273940391503        1.32907986689125       -0.44245677957667
H           -1.50812056176030       -2.62493769389464       -0.36019962473989
H           -0.09576506149786       -1.97278711306408        0.52557461354290
H           -0.22508042341698       -1.70114504901470       -1.20273012426498
H            4.52260101104608        0.79922346932548       -0.24379174189057
H            3.77354947397276       -0.40298554315671       -1.32317777268973
H            3.85565548762849       -0.72025207849608        0.40922826776847
