16
 energy: -34.166514997271 gnorm: 0.000579984018 xtb: 6.5.1 (579679a)
C            2.73256296642667        0.75926034965453       -0.08618674509855
C            1.39037923925716        0.15818174985553        0.09939562034699
N            1.09626630597314       -0.72267661806684        0.97009841269841
N           -0.29590913116053       -1.02066177191600        0.79490107821003
C           -0.76455026688232       -0.13553059783796       -0.32322352717828
C           -2.01218348057532        0.68650566133806       -0.16340662353971
C           -0.60226683093175       -1.57798347039931       -0.42959546138456
O           -0.63699838472698       -2.61424595066152       -1.01525535690717
Cl          -3.55428757858844       -1.49263551623091        2.47114149869420
O            0.39502170875654        0.57367197033546       -0.72124609722869
H            2.65061989017196        1.84415194055750       -0.11838072877034
H            3.38864159435103        0.45948619747660        0.72677268209442
H            3.15450576260318        0.42458404168292       -1.03358037234391
H           -2.75305275211608        0.11066973305489        0.38931232931838
H           -1.77978209458874        1.60166577249477        0.37798010129110
H           -2.40896694796060        0.94555850866220       -1.14278581020076
