42
 energy: -83.633002879114 gnorm: 0.000571564745 xtb: 6.5.1 (579679a)
C            6.82857499416439        1.00356392930322       -0.25469499889212
O            5.50096553034367        1.01868055343023       -0.77597251098925
C            4.57655749131295        0.33415033822571       -0.04838971097311
O            4.89388018861425       -0.24646333518113        0.97450035261745
C            3.21539096948184        0.38223999948619       -0.60501035923102
N            2.29467182421955       -0.27939419751984        0.16376915939051
C            1.04109506623801       -0.26500664017680       -0.24186064252774
C            0.05929989491508       -1.02901467473956        0.64661464522645
C            0.29207077070538       -2.53498656713939        0.42993078023617
C            0.30896812580647       -0.66221652167730        2.11660052038931
N           -1.29662708339990       -0.67374017751312        0.26138133730929
C           -2.41603169944724       -1.14798844501561        0.80751758239772
O           -2.46105444592349       -1.91431536424876        1.77283110834114
C           -3.70795132740399       -0.61813949737238        0.08643041510920
C           -4.62774616164864       -1.82837424620030       -0.17063870605917
N           -3.35716345713644        0.07876491374536       -1.14048155023870
N           -3.79852741205504        1.36600520959784       -0.97742570239895
C           -4.35497614178591        1.50047301247623        0.16803493151672
C           -4.97190828501184        2.72780065197982        0.74342215284937
O           -4.36345500435579        0.32691681970878        0.93413668425466
N            0.56278407899678        0.30919630736427       -1.33663021004303
C            1.40740320728896        0.97518777417195       -2.17331055922854
O            1.00599937915786        1.51935633633521       -3.21822866390327
C            2.81980196242298        1.01202393682452       -1.76696909637407
O            3.64415445262022        1.69361238533543       -2.60924584611299
H            7.21516830030831       -0.01886851299422       -0.22757020127212
H            7.43779931745360        1.61405394653071       -0.91744752762926
H            6.84497330596477        1.41888414097626        0.75674784662021
H            1.33344487837733       -2.77175727760120        0.64428886119828
H            0.07558746231699       -2.80279735565157       -0.60426060632100
H           -0.34834543932959       -3.11965743016319        1.08930014086021
H           -0.31518589004726       -1.26427513800949        2.77547151245911
H            1.35622238587979       -0.84350601060539        2.35632664607327
H            0.08945750137274        0.39239812788193        2.28385570221126
H           -1.41889523809682       -0.12120622613011       -0.60055677181995
H           -5.56841021411880       -1.48139234098075       -0.59303990497120
H           -4.14795183914610       -2.50416766894980       -0.87632170931742
H           -4.82353328998220       -2.35603760294928        0.76205027412250
H           -6.03662729752652        2.57852813702172        0.93911521367951
H           -4.85765930556479        3.54974453125023        0.03784292937203
H           -4.49679260932163        3.00351620803930        1.68818152172368
H            4.56457205334301        1.67820897112237       -2.31084503964179
