21
 energy: -30.829865800074 gnorm: 0.000652733109 xtb: 6.5.1 (579679a)
C            3.22889626511041        0.12878993605893        0.46512675946362
N            1.75116784379475        0.12673911669009        0.58915408259857
C            1.06792125200182       -0.12485361990441       -0.72210428410275
C           -0.42463237391926       -0.08723274414764       -0.52600717276291
C           -1.11573217875103       -1.25435289505729       -0.20427928077571
C           -2.49069649172178       -1.22719684098307       -0.02382049218394
C           -3.14880132778141       -0.01820925459633       -0.17023281942712
F           -4.47402128801687        0.01408912525976       -0.00289505855277
C           -2.49054690099856        1.15848401338676       -0.48388673666170
C           -1.11573376327804        1.11582957016647       -0.66180665392280
H            3.51652788687717        0.91890983031329       -0.22359363303698
H            3.54576705810711       -0.83971720274320        0.08707402240273
H            3.64891391476080        0.31024442199726        1.45132514111495
H            1.44808165716377        1.02541685069680        0.95625303661725
H            1.47359924214396       -0.59194206771035        1.25316147391964
H            1.40687725940626       -1.10061529451713       -1.07210912324406
H            1.40663401668879        0.65180950961291       -1.40911486632121
H           -0.57680491796727       -2.18747803214096       -0.09831562767673
H           -3.04108268697378       -2.12527681395420        0.22481661067106
H           -3.04018109104663        2.08510945932668       -0.58665446449899
H           -0.57615337560015        2.02145393224567       -0.90925191362009
