42
 energy: -82.970968467576 gnorm: 0.000736388752 xtb: 6.5.1 (579679a)
C           -6.29668561847654        0.15923314593019        1.23877298714156
O           -5.05769394190679        0.15106082948809        0.51033884710102
C           -4.02425008678716        0.74506506210819        1.08877584686570
O           -4.06049639922842        1.30260930314150        2.15391830299515
C           -2.76865839210410        0.62390543317507        0.25607130641853
N           -1.65930856733944        0.62242063479374        0.88834564729410
C           -0.48350341164353        0.46464984881433        0.14037724580491
C            0.72185458305796        0.08665207784366        0.95799567825398
C            0.93471173410952        1.14271788222973        2.05307672791961
C            0.47239677145070       -1.29908278503118        1.57459171895480
N            1.86615565081797        0.04278446406196        0.05805148126913
C            3.11785945288962       -0.26201891265830        0.45135814044633
O            3.45644171345779       -0.52388707058514        1.59264017313091
C            4.05816077211453       -0.22885400867020       -0.69899245235762
N            3.75257319824831        0.03965798444792       -1.93262873441230
N            4.91037017168733       -0.02874205292483       -2.64788579190250
C            5.84883950445929       -0.33413631142770       -1.80390160589157
C            7.28972773974635       -0.52033842589807       -2.08278393537013
O            5.37347961258290       -0.47382725369772       -0.55777534584691
N           -0.39869516712204        0.65508190726350       -1.11919941638152
C           -1.55089227679708        0.99994198043259       -1.85135382192825
O           -1.48959113146117        1.63547120112623       -2.86675891760331
C           -2.83853318269237        0.43130028531086       -1.25086384773693
C           -2.86745775176628       -1.09371930602493       -1.51100836954346
O           -3.92594717065442        1.07114667665625       -1.84693841986275
H           -6.14025968914322       -0.25986348572018        2.23430472702852
H           -6.99118929765695       -0.45229765386488        0.66920755688533
H           -6.66553011022167        1.18298947217784        1.32457541631689
H            0.03697720448732        1.21017514531627        2.66492660009454
H            1.77599321121633        0.85662019942898        2.68106158171697
H            1.13510416668285        2.11341156786625        1.60221219060440
H            1.30626385422279       -1.57107836769493        2.21891967064944
H           -0.44324828955792       -1.27266332717583        2.16234473316861
H            0.36959192110844       -2.04242447137268        0.78610181427572
H            1.68274717501278        0.22223468261023       -0.92253168942133
H            7.47768758242349       -0.38118322310255       -3.14448062963321
H            7.87487160879197        0.19985503829761       -1.51078545859077
H            7.60143426140426       -1.52085939797386       -1.78357071780600
H           -3.74551316317895       -1.52030084453320       -1.03194647072426
H           -2.92531864127316       -1.26395668775927       -2.58426896744340
H           -1.97169765241440       -1.56336483348992       -1.11119683742817
H           -4.75877094851175        0.65361259705238       -1.59083896448933
