47
 energy: -80.197575088027 gnorm: 0.000716201134 xtb: 6.5.1 (579679a)
C            2.24811651308652       -0.26799337820443        2.51068698281088
C            3.57225973812585       -0.71735614532881        1.82952022232318
C            4.64009303262032        0.33569448420833        2.03849908850589
C            5.09573766391380        1.07272583995649        1.00116169760512
F            6.01134746332726        2.05377641150034        1.27224670764677
C            4.74699823612269        0.89209459954241       -0.34594669685263
C            3.88344640165519       -0.18165315857807       -0.62275849258765
C            3.36727576613007       -0.99560127441869        0.34908939543730
C            2.47620018859930       -2.15111869989815       -0.02378443835579
N            1.10754050482486       -1.67823267252256       -0.29850360680605
C            0.69183254743322       -1.35728341434393       -1.53566738835285
O            1.30079458819078       -1.69437853416643       -2.57118525204178
C           -0.57614507341716       -0.61485010494246       -1.59344882341940
N           -1.17416148104862       -0.27642893217840       -0.40910930005320
C           -2.30230151500025        0.36091166185487       -0.39233099889244
C           -2.90201306220972        0.61897046864406        0.98708995252353
C           -1.86025775445778        0.27995662311590        2.06547357741928
C           -4.13235909737311       -0.27826447076845        1.18340167655959
N           -3.30022442836136        2.02061807876825        1.12322657549525
N           -2.93891131043140        0.72122558198033       -1.55303006554137
C           -4.21884049798554        1.42728168505328       -1.60771922573023
C           -2.42797294220350        0.40022262456760       -2.82519535881192
O           -3.06062859741860        0.72167229935936       -3.83524701747006
C           -1.16863744565885       -0.29617552989038       -2.80076648516181
O           -0.60934822997750       -0.62871216760077       -3.98423972444889
H            1.52022150549556       -1.07905915283553        2.50251466949930
H            1.82628799012744        0.58988611839375        1.98673506098096
H            2.43682188473129        0.01369579134200        3.54709093427496
H            3.87320368093654       -1.65102367608099        2.34269631347681
H            4.96969544940304        0.52666040450412        3.05221383157816
H            5.17784881623248        1.50475879583351       -1.12489895720061
H            3.65045952061725       -0.39928973432381       -1.66380957336301
H            2.41409796886192       -2.88686346994770        0.78575406419622
H            2.82527396312021       -2.65960824607504       -0.93020935530326
H            0.60068421377091       -1.26784653555079        0.47404627782428
H           -0.95289469961691        0.86273048234037        1.91110988140328
H           -2.26723090207925        0.51443027640272        3.04745899163819
H           -1.60485449925174       -0.77831335029431        2.03112728475965
H           -4.92578644334011       -0.01956947650648        0.48526891066990
H           -4.51297382520138       -0.16032505989616        2.19684719456877
H           -3.85801125275627       -1.32204678556201        1.03267347790787
H           -2.47544726207035        2.60441804055095        1.17093824070543
H           -3.80270414013929        2.13320191466048        1.99152213916318
H           -4.42356257676736        1.91796059242591       -0.66159386861096
H           -4.16626257070976        2.17769627478304       -2.39883369431915
H           -5.01573276778527        0.72097335148874       -1.84733510711391
H            0.24102573794753       -1.10956943136841       -3.77181371854179
