20
 energy: -38.355953988061 gnorm: 0.000309342346 xtb: 6.5.1 (579679a)
C            3.81352398003456       -0.38953814055171       -0.66248783360840
O            2.41317793066695       -0.19230977400471       -0.58721011298564
C            1.83182696645278       -0.56258416179850        0.61726494697219
O            2.52840827780720       -1.02933100499165        1.53319561227457
C            0.44412580496670       -0.35174723222742        0.66256168522643
N           -0.34681800355332       -0.61473771129397        1.70123465830434
N           -1.57561707782052       -0.31031667801076        1.44192045045419
C           -1.62821096686849        0.21960133419470        0.06865647075596
C           -2.53395835679879       -0.67388583367035       -0.79396569638360
C           -2.14496059460461        1.66702449227570        0.09185809032275
O           -0.29318499417755        0.18039742525176       -0.41252164626275
H            4.33587854841198        0.19151062475231        0.10663104302697
H            4.07005137938022       -1.44769235108223       -0.53507571173469
H            4.13264669142964       -0.05477463232125       -1.64980339388113
H           -2.13978221639632       -1.68893974613716       -0.79841113841183
H           -3.54014667318314       -0.68464992407129       -0.38012427257239
H           -2.56819354745070       -0.30154011920867       -1.81616080114692
H           -3.14587959361904        1.69306918417946        0.51772315715957
H           -2.17151845912323        2.07365864837469       -0.91755627626164
H           -1.48136909555438        2.27678560034100        0.70318176875183
