12
 energy: -30.096491758025 gnorm: 0.000471223169 xtb: 6.5.1 (579679a)
C           -2.23812031735678        0.21076105307073       -0.04871047383454
C           -0.84810580867317       -0.22685956365374        0.19345882357445
N           -0.44628388826681       -1.26957068652514        0.86367021662907
N            0.90359519870334       -1.27588888573365        0.80702011331644
C            1.25739719661101       -0.23557214969603        0.10490684535689
C            2.62502560259103        0.17382584094625       -0.22263734748636
O            3.60055361970946       -0.43024057592105        0.11766699925984
Cl           2.71724497401117        1.62540005659753       -1.15235413388754
O            0.18038537561384        0.46424822240426       -0.30828281557516
H           -2.51743845887127       -0.00563511888186       -1.08079009743376
H           -2.32138447450942        1.28569014500900        0.10417476416721
H           -2.91287001956239       -0.31615733761631        0.62187710591342
