42
 energy: -83.645378372983 gnorm: 0.000869094432 xtb: 6.5.1 (579679a)
C           -5.54830052644746        2.67570257347245       -1.16710308101381
O           -4.40666401392996        2.21424138561472       -0.47187683886801
C           -3.72501311940078        1.17568683557721       -1.07613654323695
O           -4.15201482336164        0.71886618065221       -2.14235722742969
C           -2.57375924422863        0.72203391840973       -0.36300490703954
C           -2.07594853269431        1.27476157572569        0.83376546473954
O           -2.57135369635676        2.20261321991936        1.50552236780410
C           -0.76030706733111        0.60678693386640        1.35373024857054
C           -0.63149800717584        0.79141048945508        2.86879446313770
O            0.38172572745524        1.14972548738870        0.70416400073188
N           -0.85991206380344       -0.81100869633475        1.04528048791785
C           -1.00701564205262       -0.98153822858584       -0.35024552189348
C            0.04676108177374       -1.85861105992452       -1.00441170600291
C            0.01117914584154       -3.28675235216157       -0.43527076067476
C           -0.18268734775435       -1.88970603951298       -2.52277249558201
N            1.29062540979215       -1.15657170960676       -0.64112376752125
C            2.42120153855739       -1.63852378681712       -1.09261916117525
O            2.65290168599622       -2.64307080845648       -1.80656114050305
C            3.60984082091583       -0.80608034013728       -0.66576531559147
N            4.84691255405482       -0.97672598199256       -1.03156993193877
N            5.58649170721333        0.00698399338533       -0.41808050403412
C            4.75196221411940        0.70738799235111        0.27897033047362
C            5.06159490801302        1.88222197475022        1.12940172860664
O            3.49292372723383        0.25434876726897        0.16809544745616
N           -1.83301499131778       -0.29230552808651       -1.02893956246315
H           -5.98118573418494        3.48543655487592       -0.57903062706609
H           -6.29001524185525        1.87732469338657       -1.28653508159025
H           -5.28174756371951        3.05226795564885       -2.16187015964189
H           -0.62473812248472        1.85482277655495        3.10492894121988
H            0.29703900041904        0.34323850811270        3.21637703533860
H           -1.47165539513244        0.31812419116653        3.37458457933937
H           -0.03258733410698       -1.29434069984979        1.38244360190505
H            0.22556164417517       -3.27991259497362        0.63287277831834
H            0.75191635606017       -3.91248567578733       -0.93238243992737
H           -0.97670611251032       -3.72266839328609       -0.59013509561012
H           -1.17506133991484       -2.29203456035837       -2.73308718615733
H            0.56055076511590       -2.51688763524310       -3.01291561545440
H           -0.12506527232070       -0.88005568295229       -2.93223968005887
H            0.88176629337560        0.39531460728980        0.27127743453598
H            4.82431205108360        1.66730395621618        2.17113819260418
H            6.11921031445450        2.11881010001026        1.04581000609476
H            4.47177524644973        2.74386210295668        0.81713424168400
