42
 energy: -83.613861335258 gnorm: 0.000448208838 xtb: 6.5.1 (579679a)
C           -2.51419263550988        2.41067056506543       -1.87207058944528
O           -2.35976320301161        1.21736529203988       -1.11446013506724
C           -3.50702672014934        0.55484295795258       -0.82328277297260
O           -4.59324945178770        0.97267643087288       -1.19940798934252
C           -3.28982992748372       -0.77479396743111       -0.12322037772893
C           -4.53253691629683       -1.13115238777972        0.69877279036103
N           -2.12722529263696       -0.74124233809504        0.75010032920714
C           -0.97847879892159       -0.97613552939374        0.22917664737636
C            0.26144196884785       -0.91869133981512        1.11358988588632
C            0.53422220742150       -2.34963542686045        1.60470834051592
C            0.01483698226312        0.02435701028583        2.29969479501445
N            1.37265794021014       -0.44481085674638        0.28706353998783
C            2.63524803924623       -0.21130378295612        0.85296758575020
O            3.02314942000933       -0.74784590728283        1.91143001811859
C            3.41785121575118        0.65888312404063        0.03252778454985
N            3.01608973094074        1.25582867143004       -1.09399075605270
N            4.07239998647901        2.00726528580390       -1.53223197038157
C            5.03711240511750        1.84595695385836       -0.68721459633013
C            6.38533104141898        2.46430836659503       -0.73927280852169
O            4.71765426453874        1.01416922567719        0.33285517008112
N           -0.79364180179471       -1.33138710063104       -1.06968109928193
C           -1.84763258924148       -1.92209526315242       -1.84849326311510
O           -1.48513429701813       -2.60601574620226       -2.85045481665305
C           -3.15339587885551       -1.72371181899102       -1.35005972945866
O           -4.21795079376802       -2.24326776167316       -1.83042735708013
H           -2.95590886190845        2.19703843607698       -2.85067420395678
H           -3.15846095668046        3.11971625320312       -1.34326469122472
H           -1.52270144855807        2.84247528369939       -2.00029812378519
H           -5.41587475446741       -1.11685122376736        0.06049322129704
H           -4.66493029785249       -0.41616897882793        1.51007056887807
H           -4.41873078355487       -2.12792809280016        1.12342383470420
H            0.76969107971825       -2.99361828972891        0.75747421108227
H           -0.35368494583794       -2.73450256392865        2.10609728788917
H            1.36749758373558       -2.36793574163531        2.30436029676536
H            0.86433567615906        0.01090676692476        2.98057151784502
H           -0.13944345105675        1.04214549593464        1.94144491198338
H           -0.87797385873350       -0.29459481208412        2.83685014847878
H            1.10605675007258        0.28589559111374       -0.36697967150767
H            6.48691584514623        3.03769482183796       -1.65751852645861
H            6.53385048174014        3.12644711763465        0.11437106514010
H            7.15671407042054        1.69506172439596       -0.70607762143512
H            0.13471397588634       -1.61001644465696       -1.35212285111402
