33
 energy: -57.867928426850 gnorm: 0.000575467308 xtb: 6.5.1 (579679a)
C            2.21251172911441        2.60544585932085       -0.19676333179570
O            1.53899147833843        1.33894092772675       -0.17838747453729
C            2.28169210199255        0.28819950260909       -0.55847813147425
O            3.43307379557722        0.39845453651128       -0.90317552414822
C            1.53278619790902       -0.99697288388370       -0.50228462463005
C            2.08156532231706       -2.18352362393964       -0.90899038344887
O            3.31442457780527       -2.30776452402502       -1.40556353595776
C            1.31046484999656       -3.42252951680622       -0.81812053804041
O            1.74488110763507       -4.50762775991882       -1.16885897342554
N            0.05059306685729       -3.25367084272157       -0.29568824102780
C           -0.44199865540019       -2.04114440737545        0.08641417167243
C           -1.83013569855621       -2.02321257713848        0.62963920744561
C           -1.93365246418228        1.84765006501402        0.56747376212012
C           -1.47554314290230        1.72246794072138       -0.82842418528234
C           -0.96656488437524        1.65750696962007        1.66562735111723
N           -3.17108622931697        2.10669717555496        0.82712035904044
N            0.24651444442955       -0.95143101931665       -0.00702122862891
H            3.04673488361800        2.59398040210761        0.50860548508676
H            1.47794729035843        3.35060680508832        0.09854935498283
H            2.58341811018344        2.81645130570821       -1.20238034662180
H            3.47321190004836       -3.24305278655279       -1.63251587646889
H           -0.52831933779714       -4.07421589411305       -0.21011108861377
H           -1.88344053557168       -2.61255595809206        1.54527471233720
H           -2.52552586774624       -2.45267841962466       -0.09083999774097
H           -2.12506905446724       -1.00061507435613        0.84713488183784
H           -2.29521827148762        1.78079072459261       -1.54039412652501
H           -0.74717845192072        2.50745528224690       -1.03965887745319
H           -0.94356899857847        0.77201731577477       -0.93321851565966
H           -0.29336685345290        2.51702287319866        1.69545381486146
H           -1.45727046001856        1.55463644380921        2.63059376020020
H           -0.34919249608461        0.78089712462355        1.45022950169594
H           -3.50974203773191        2.19168459901778        1.77163427500925
H           -3.85193941634789        2.24008843474944        0.09712136392365
