33
 energy: -57.821356958506 gnorm: 0.000708164636 xtb: 6.5.1 (579679a)
C           -1.76618165142725        0.42399969082899        2.94388138366418
O           -1.40263687191506        0.03072666448673        1.59807117032756
C           -2.23104611030779        0.22943990055208        0.62771466634526
C           -2.48799424954092        0.26993837718298       -1.89896387347100
O           -3.33216131270072        0.67404735773931        0.63781518961768
C           -1.56057166502324       -0.22108789509488       -0.78546896164304
N           -0.30659256506973        0.45856005380326       -0.80129242259684
C            0.76929725526881       -0.14822811335906       -0.47270605980432
C            2.09365022731741        0.57977618973338       -0.39704260553054
C            2.15352564472690        1.25730026366648        0.97981774697580
C            2.19385982132989        1.61495320978727       -1.52290558835832
N            3.14698691711280       -0.42277719420575       -0.47830394505431
N            0.82444811295669       -1.47889138268480       -0.11351159634260
C           -0.22385405057855       -2.32764504918557       -0.17044794472175
O           -0.21220682523731       -3.51618071933540        0.06616858827025
C           -1.48315079490902       -1.66168877551845       -0.62334373095377
O           -2.50096780935143       -2.41043582070825       -0.80879134048541
H           -1.79838412897328       -0.48214628176338        3.54736107142638
H           -0.98361455644925        1.09066910130946        3.30244765303212
H           -2.73473033339641        0.92348414821786        2.94023637901390
H           -2.05336441780508        0.00627269403411       -2.86033798559351
H           -2.58460931058117        1.35093785698868       -1.82811586437816
H           -3.46592179919347       -0.19524783546862       -1.79647754073726
H            3.08546521321693        1.81225095184097        1.07293356886151
H            2.10674675077447        0.50525925710410        1.76589148996686
H            1.31577191351110        1.94396598412161        1.09307274365399
H            2.15684906453496        1.11895201072496       -2.49133089786502
H            1.36348699049670        2.31670570000438       -1.45312960801865
H            3.13340922693754        2.15732687351161       -1.43753180012578
H            3.99613548470290       -0.07192861763838       -0.05865103286346
H            3.34080242458649       -0.64582937429806       -1.44487474427201
H            1.76335420321726       -1.82626698047460        0.09375704667062
H           -2.31580179822547       -3.35621324590625       -0.60237915501303
