42
 energy: -83.624097411139 gnorm: 0.000579821805 xtb: 6.5.1 (579679a)
C           -1.44136012603426        3.67013584085427        1.33734692443006
O           -1.41773776316993        2.35760925539675        0.81138470548057
C           -2.65715423052634        1.80266537867218        0.54523399052383
O           -3.66753988173906        2.45986375356900        0.78678197785552
C           -2.56547984508730        0.45336168625614        0.01198809044376
C           -3.75927537932814       -0.28752265195529       -0.24534143316615
O           -4.94061246204802        0.17450112047279       -0.19951438553457
C           -3.55964278140123       -1.73729112200033       -0.53393683062228
O           -4.47761607481295       -2.56331941058278       -0.65480021556917
N           -2.25770426233195       -2.18630830863617       -0.55507724456565
C           -1.13652057485433       -1.28726003716077       -0.79604127558514
C           -0.98113687189147       -1.08587755991671       -2.32966347215250
C            0.16085367877155       -1.92417556558785       -0.18411644962517
C           -0.09682514020182       -2.23374043439392        1.29911803335413
C            0.61045049492854       -3.19077778206435       -0.92111519075768
N            1.18173110933615       -0.88537771856846       -0.30099405814700
C            2.47326818849693       -1.03080804382647        0.10735449742000
O            2.96905614772728       -2.10383878883708        0.49829523277774
C            3.26478273323612        0.18325621240216       -0.00082249653271
N            4.53386310609181        0.34415888265137        0.33735469261236
N            4.85293925278652        1.64185556341119        0.04968521253274
C            3.79089502599059        2.19877669724315       -0.43686920157916
C            3.65286332222560        3.59772540800872       -0.90881280614065
O            2.74136974725077        1.35033512275924       -0.50005564320181
N           -1.29816783662531       -0.01691255196108       -0.15894488166884
H           -0.40856543229059        3.96216624687923        1.52822635906011
H           -1.89151976707787        4.37280332346070        0.62634049167374
H           -2.00963305674629        3.71333380877586        2.27403296052762
H           -2.15016661504682       -3.12264628098086       -0.91286070602272
H           -1.82270296807544       -0.50134301532585       -2.70027498040631
H           -0.05918191514538       -0.54651565054907       -2.53841703354188
H           -0.96541851739825       -2.04238643211572       -2.84828512299676
H            0.81051007096887       -2.60147345893717        1.77641654963879
H           -0.87346146606382       -2.99309022331587        1.38759054829184
H           -0.42839651646466       -1.32710488248219        1.80790909738045
H           -0.21968149235316       -3.88942828675727       -1.01368059151686
H            0.97790983141283       -2.94839718560380       -1.91715183789039
H            1.41115974620497       -3.68639073848068       -0.37299251776525
H            0.80233847149621        0.05810408751061       -0.36103987356325
H            3.24021526761253        3.61654439142097       -1.91748227654628
H            2.98183678354242        4.15838733499470       -0.25664438592581
H            4.62946099867421        4.07640401530800       -0.90769545299521
