43
 energy: -83.135435618406 gnorm: 0.000160548551 xtb: 6.5.1 (579679a)
C           -6.53760207522903        1.00307543192997        0.82463142624690
O           -5.22133317666662        0.56094285492763        1.17600431348176
C           -4.36193747272555        0.40086841009305        0.17606478873823
O           -4.64077849708680        0.60196920406051       -0.98339028652810
C           -3.00827360280597       -0.04993701242240        0.62446607279258
N           -2.11870499208137       -0.21149979579101       -0.41272490017798
C           -0.91662660236036       -0.59889909616785       -0.18082951704086
C            0.05314245187004       -0.78516784120752       -1.32624915639024
C           -0.51697897091114       -0.17512213254633       -2.60571507021628
C            0.38246849747148       -2.27204680591343       -1.49626951246472
N            1.29707555836310       -0.06127287693803       -0.94047199709649
C            2.35113318974386       -0.01794705084130       -1.72719186841155
O            2.50747550568263       -0.41441895552046       -2.84546196736926
C            3.61416590622288        0.72638821011299       -1.00522377392620
C            4.81068813369806        0.65493420035029       -1.94169199089930
N            3.15964477197600        2.00856835133556       -0.66384314946621
N            3.06727429943836        2.10954945178763        0.59800806191131
C            3.50797938302298        0.93401012058825        1.14472103537838
C            3.57715933540019        0.63169940648538        2.57037341325396
O            3.84575025035606        0.09790775652235        0.22851040845034
N           -0.46623109192397       -0.87615872443581        1.08301601739797
C           -1.25064360381558       -0.71782009821560        2.20330153875247
O           -0.83609025992229       -0.92962160979235        3.32998644926618
C           -2.61579674595241       -0.27470370797184        1.91645697090394
O           -3.40062494244572       -0.12009178790595        2.98301776887273
H           -6.48329946225935        1.96451079481221        0.30849085108477
H           -7.09016594926605        1.10312927663297        1.75657927625169
H           -7.01766268920937        0.26854940558496        0.17361226185896
H           -1.47303182915680       -0.64829538373068       -2.82561580057821
H            0.16210184475307       -0.33868561744585       -3.43951388330358
H           -0.67438076145114        0.89373717293667       -2.46974294242704
H            1.06515296620069       -2.40991393865624       -2.33275173556050
H            0.84834273691568       -2.65625957523831       -0.59150648846022
H           -0.53522032897904       -2.82618675103132       -1.68878379899542
H            1.34463174135670        0.33403511577943       -0.01753077448724
H            5.02343749611197       -0.38849453162749       -2.16340484964754
H            5.66801591959436        1.11534012882416       -1.45597089375719
H            4.56732684242015        1.18425849367129       -2.86044175470954
H            2.56285108772484        0.61044252236972        2.97815484028097
H            4.10841703718603        1.43363301017067        3.08756325792659
H            4.06219735389163       -0.32719890837569        2.73842518581108
H            0.46940048456493       -1.21136088546571        1.23798546650717
H           -2.89045273968524       -0.32644623173815        3.78750970676649
