16
 energy: -34.296788688060 gnorm: 0.000341303498 xtb: 6.5.1 (579679a)
C           -3.33444896061872        0.30301916311483        0.06399723524937
O           -1.90255520971686        0.27111487800202        0.10945800797546
C           -1.34269452340008       -0.87138562174112        0.47996114092030
O           -1.95006142660743       -1.87019461282001        0.78205163530825
C            0.13772666133519       -0.79046606446999        0.48131138186308
N            0.96510565172732       -1.74453779738718        0.78798695062590
N            2.21655990535102       -1.23838724615706        0.64638227594891
C            2.07992193283207       -0.00431098729878        0.26057171135625
C            3.15033628565230        0.97481326649386       -0.02467966694464
O            0.79147395469194        0.33808368752154        0.13807064175380
H           -3.70455041916917       -0.49268496718419       -0.58579490025098
H           -3.74110399571950        0.17197431092289        1.06884494665166
H           -3.60705138872154        1.27821215433763       -0.33253579738711
H            3.00116089248102        1.41299309984916       -1.01074941972340
H            3.12182264449982        1.78031133350450        0.70953739951481
H            4.11835699538259        0.48144640331191        0.01746745713838
