16
 energy: -33.392159081803 gnorm: 0.000793060377 xtb: 6.5.1 (579679a)
C            2.68771544870776       -0.27956881027665       -0.23495246653070
C            1.31070384069091        0.16828275562520       -0.10829351101095
N            0.90001258139496        1.48258658849201       -0.07802443581260
N           -0.35468883095117        1.49324612608129        0.02343307320448
C           -0.84624668099930        0.16573246294068        0.09176162541063
C           -1.87638108682508       -0.18856489265327       -0.98244693438600
C           -1.56354391643437        0.03227942816450        1.51254836471660
O           -2.56743017665163        0.63460282279528        1.68082078758948
Cl          -0.80265923671452       -0.97769347352680        2.61183005244623
O            0.30950196070956       -0.62657482968763       -0.00822326855560
H            3.09500095167260        0.09689256141647       -1.17819491620080
H            3.28948904115213        0.17160127103405        0.55848504557527
H            2.75279286793027       -1.36467296507927       -0.19969494785925
H           -1.42383894068493       -0.04127518431991       -1.96027289957944
H           -2.74018357566880        0.46238917889089       -0.86289556849887
H           -2.17024424732840       -1.22926403989689       -0.86587900050840
