47
 energy: -79.547062527707 gnorm: 0.000284522813 xtb: 6.5.1 (579679a)
C           -3.13385166403246       -0.13008331363181       -4.17400187246576
N           -2.10617605515895       -0.39132941914145       -3.16571161677090
C           -0.86390347148238       -0.80790920817859       -3.60466995843105
O           -0.58537306256445       -0.95955838446450       -4.78870372087334
C            0.10345768531554       -1.06071926656213       -2.54819872093583
O            1.30975574394324       -1.47932886045781       -2.97427555219524
C           -0.22493861314898       -0.87750263811701       -1.23659457463790
C            0.64748441367129       -1.08888505664476       -0.04421559166157
O            0.21152087099500       -0.87942521862360        1.09548062928656
N            1.89203763799906       -1.51969583963986       -0.26581016107216
C            2.82465044468638       -1.73797536721251        0.83791424103217
C            3.68633364046239       -0.51349961871844        1.05785657957349
C            3.12976753178419        0.63523670481954        1.61806811637346
C            3.90331079006914        1.76906532946639        1.81714113426487
C            5.23598274127967        1.72740095283362        1.44691716927897
F            5.99166034579848        2.81971838885535        1.63872667183735
C            5.82009617812996        0.60532536341946        0.88833136368156
C            5.03002329811754       -0.51992557545691        0.69380895564651
N           -1.48893184514252       -0.44960160423397       -0.91232698630628
C           -2.37113066429615       -0.23011418098566       -1.83514819861160
C           -3.73267457138017        0.22089924156201       -1.41986287755021
C           -2.50385817544415        0.60185078089542        2.30230966123513
C           -3.62298101591281        1.07802482745858        3.14195974753024
C           -1.51847503655750        1.55804103493612        1.74968950522772
N           -2.36700356002370       -0.64579375134361        2.02991645682228
H           -2.69769111007466       -0.30996634030940       -5.15583733856328
H           -3.97856681741491       -0.79898666228883       -4.01582787012489
H           -3.46461137648892        0.90461129562095       -4.09917628045860
H            1.29231982741245       -1.53856085773732       -3.95000444913302
H            2.24094024543503       -1.64167851343682       -1.20374592593438
H            3.44053427302224       -2.60624589583200        0.59191047287107
H            2.23501906322416       -1.95474828777195        1.73347201938619
H            2.08399730949904        0.64211189707903        1.90056857581578
H            3.48375834240721        2.66712853348610        2.25103699914542
H            6.86617138707672        0.61295838961005        0.61048564084548
H            5.46721803310025       -1.40970634403787        0.25610938873690
H           -3.76678459053831        0.27294619349433       -0.33399064400535
H           -3.95748475413758        1.20508083394456       -1.83143689142808
H           -4.49542790847428       -0.47613424033436       -1.76704588870433
H           -3.23403853580690        1.69032661597488        3.95680353382300
H           -4.26684018265298        1.72039344763222        2.53827243544642
H           -4.21063047801561        0.25530623484766        3.54323147975914
H           -1.85804588341842        2.58659726401394        1.84185832486095
H           -1.31686515045985        1.30965674088014        0.70629420404289
H           -0.57640362331063        1.43877831049245        2.28989313354312
H           -2.98809049202319       -1.35262477604597        2.38338886914953
H           -1.56525816606516       -0.94146016004901        1.45305281077053
