47
 energy: -79.523963640180 gnorm: 0.000564101871 xtb: 6.5.1 (579679a)
C           -3.80679341455545        0.34613989074053        2.29679511818131
N           -2.61894855927857       -0.12281163155288        1.56735492194015
C           -2.36217083081420        0.14482408773277        0.26805227793824
C           -3.48832455356739        0.54697280061495       -0.69782082681246
C           -3.69821938008317        2.06747005020585       -0.72670408993057
C           -4.81126987178372       -0.17769226876947       -0.36711071490890
N           -3.09689539949947        0.10541010157643       -2.03156779352099
N           -1.11890162814662       -0.06132644730983       -0.17800915860930
C           -0.61951123350378        0.59517648907890       -1.40156752982348
C           -0.16789013457252       -0.78798227836363        0.53384864733955
C            1.09516193342278       -1.23397890586549       -0.17797493754959
O            1.09523897866704       -1.50673775550090       -1.36833529593036
N            2.16118430826081       -1.34303021403768        0.61852022370190
C            3.45099941998647       -1.80270965893808        0.10687811477335
C            4.41598956952038       -0.64567131100747       -0.02471413952682
C            5.64375374622719       -0.67430257632331        0.63058655864874
C            6.53558265316755        0.38240068918720        0.50381643044122
C            6.16924934518210        1.45917187482618       -0.28269050769903
F            7.02353610001947        2.48514272978395       -0.40848470967848
C            4.95482913163788        1.52168669471978       -0.94381101895252
C            4.07811639713316        0.45568116015243       -0.80952100050981
C           -0.48302900655705       -1.20379203028838        1.78781300494771
O            0.33554195786309       -1.94524712434029        2.53804476990070
C           -1.73505674694497       -0.81250406782530        2.40576103545479
O           -2.00399851163118       -1.06104393650305        3.56365716583693
H           -4.53402122800925       -0.45905016567744        2.37727792673103
H           -4.23166584233683        1.21304309711916        1.80863088132356
H           -3.47457484757472        0.62353926394634        3.29725476026060
H           -3.91863484835662        2.45366792153839        0.26582904276846
H           -4.53827023422772        2.29124008424787       -1.38236729175203
H           -2.81382014176658        2.57478629296775       -1.10748525957738
H           -5.37819538492415       -0.26626968759690       -1.29295469634891
H           -5.42659096090756        0.37503281861454        0.33699223836782
H           -4.62276978609057       -1.17873855622574        0.01538423731746
H           -3.23267743633618       -0.89432937576448       -2.10705884763097
H           -3.69604599274007        0.55380489577139       -2.71061733183489
H           -0.65669982257820       -0.09608725653057       -2.24017118824382
H            0.40824424876106        0.89985949911770       -1.21350130938818
H           -1.21831352251869        1.47178347654474       -1.61285863044917
H            2.11366164377088       -1.08272306210467        1.58817786550306
H            3.84138429405039       -2.55663527648867        0.79516529562697
H            3.27339322991480       -2.26578910727814       -0.86919178607209
H            5.90894449528235       -1.52617947080993        1.24558993763797
H            7.49296412568762        0.37247611491108        1.00849456924497
H            4.70283036060563        2.38410569078097       -1.54677171092010
H            3.11956342790582        0.48211129636334       -1.31413858212377
H           -0.06688004774239       -2.10089685545799        3.41319533389850
