42
 energy: -83.652464188197 gnorm: 0.000369905428 xtb: 6.5.1 (579679a)
C            6.79229893020568        1.04435464527364        0.89166960651779
O            5.52548331427214        1.23558777354817        0.26162865345186
C            4.63622843238994        0.22426749253036        0.41724933645735
O            4.92755931969357       -0.77174569787709        1.04880331615486
C            3.33031032079111        0.46242362854386       -0.22788729064698
N            2.44050110680429       -0.55752033796802       -0.02615870471518
C            1.23469377654246       -0.42277813755732       -0.53575854469605
C            0.25552897710228       -1.58006372381107       -0.33995399179231
C            0.69642817448819       -2.46066391016198        0.83544178057583
C            0.24476432335841       -2.39322677269493       -1.65055614006966
N           -1.05271027573741       -0.99632008715097       -0.07087020915045
C           -2.21082922138487       -1.75699727768781        0.00670765816891
O           -2.18453292660883       -3.00606309922379        0.09976965560238
C           -3.40761952703818       -0.99364754755969        0.03520148336204
N           -4.64283708543021       -1.45070146877808        0.15373638608419
N           -5.51020352576832       -0.47585365824375        0.17224614825983
C           -4.75820801663434        0.78424661223654        0.05605241310082
C           -5.20463828717009        1.54219093315296       -1.20656072459694
C           -4.98706709106831        1.64428949623943        1.31269587325719
O           -3.39011016486840        0.41689075782258       -0.04358846182549
N            0.78185234951120        0.60587457067239       -1.24612993109120
C            1.60012186785680        1.65730239015712       -1.51394903280079
O            1.22634316288529        2.63532992125392       -2.18488275527553
C            2.96420580317790        1.56923404742436       -0.95961640680954
O            3.76449806180611        2.63269117017144       -1.23191837730060
H            7.28704485293158        0.15823468159505        0.48577698944105
H            7.38688189033327        1.93102375328585        0.68562148984297
H            6.66352320609512        0.92127406568489        1.97025604159559
H            0.66760364464939       -1.88462480204461        1.76090530639052
H            1.71708966028552       -2.80546413866944        0.67186298831096
H            0.04232497498461       -3.32587430433838        0.93490135137820
H           -0.42731465062390       -3.24675067783562       -1.56957961680625
H           -0.08039010311726       -1.75863353670216       -2.47537664685268
H            1.25017620692940       -2.75650052532348       -1.86179217188380
H           -1.16099697437534       -0.04900913322123       -0.42180358264558
H           -5.03305175154771        0.91712888107058       -2.08168055193506
H           -6.26604774781658        1.77092064507984       -1.13762959890340
H           -4.64294437862550        2.46882951989406       -1.31346082571638
H           -6.04441311340435        1.88245629302730        1.40643276780988
H           -4.41376086328513        2.56788037875894        1.25043132596630
H           -4.66989520809711        1.08694848442401        2.19300138399521
H            4.65210955550060        2.53305469500374       -0.85930539020985
