43
 energy: -83.886639421992 gnorm: 0.000709167921 xtb: 6.5.1 (579679a)
C            3.41872654037522       -0.84148335354169        3.74685339634178
O            3.35126864032593       -0.66050306345182        2.33643353716258
C            2.12260037611085       -0.68181464888372        1.79208176196662
O            1.13022952067994       -0.82932092794950        2.48011770257070
C            2.09842021690669       -0.49216921309791        0.31274567250653
C            3.22683449880786       -0.60599736161946       -0.49616426098297
O            4.47152077854487       -1.03019684030281       -0.02544122015972
C            3.15719003284393       -0.26724308352364       -1.87388687044003
O            4.12666886040056       -0.30964145758559       -2.65449346309338
N            1.93175343423598        0.23856856939282       -2.30224969750035
C            0.71176564204088       -0.12001845534329       -1.58472902633947
C            0.20442755295267       -1.49457189670690       -2.08452779643947
C           -0.35234470498126        1.00186918770776       -1.82894807757607
C           -0.87970394047041        1.02197308583857       -3.26598548794986
C            0.25373551569580        2.36181477978123       -1.45663722835430
N           -1.44304681908028        0.69909057875308       -0.89599190374414
C           -2.59378907493488        1.37212080337079       -0.81907436214009
O           -2.95294275729217        2.28008024283230       -1.56111067519771
C           -3.48019619825416        0.89151103887115        0.28103985517080
N           -4.63574907662030        1.37540615430746        0.62125195822003
N           -5.08942118977074        0.61804492340891        1.66268616510210
C           -4.18267552844055       -0.27984885990304        1.89174712166609
C           -4.21001065771519       -1.34447242122723        2.91908723360355
O           -3.13873003997058       -0.16111453731611        1.05555973346887
N            0.88909199741499       -0.19633455282409       -0.15287542345026
H            2.82527929008146       -0.07969763754064        4.26059262831752
H            4.46595021727677       -0.75065791646572        4.03063633829153
H            3.04162819976240       -1.82992430073599        4.02398332533453
H            5.06236441518047       -1.02721874627225       -0.79612753495601
H            1.83569857759491        0.23680792230092       -3.30750681024234
H            0.90151273319849       -2.26793959001367       -1.76479134313851
H            0.13870565274490       -1.51283687985454       -3.17037515589205
H           -0.77489103107851       -1.70775133094713       -1.65986887850573
H           -1.49576857345712        0.14619800373479       -3.46342214845372
H           -0.04705708429182        1.03256456638847       -3.96706090522089
H           -1.48283495946786        1.91257817840479       -3.43852929687565
H           -0.49251541998268        3.14928813097524       -1.55190481160147
H            0.61664379229455        2.33322733384930       -0.42847966574922
H            1.08917919738454        2.58194153328710       -2.11997352707725
H           -1.18098253091707        0.07241254565589       -0.13771260611428
H           -5.17841998340981       -1.34643184668631        3.41353983044871
H           -3.42769234509679       -1.17360460801221        3.65946294471229
H           -4.03242276764267       -2.31470904906619        2.45595797230624
