38
 energy: -79.617339494145 gnorm: 0.000307419249 xtb: 6.5.1 (579679a)
C           -6.06940210377238        0.80038388685429        0.94195208065417
O           -4.72747995899172        0.41638587711248        0.65983206030873
C           -4.56803498094851       -0.55216598870968       -0.26410060788422
O           -5.51864179885245       -1.07450606076940       -0.81141412349832
C           -3.14445072038086       -0.86361331347387       -0.51438491457246
N           -2.22367578971128       -0.18835187701941        0.24388719742226
C           -0.95291112263918       -0.42308904681000        0.00803553619261
C            0.03073246775594        0.34627269696543        0.88420324093622
C           -0.00579335786432       -0.23687033420748        2.30457469328781
C           -0.34533565003535        1.83276267570919        0.89840829180863
N            1.36000305053338        0.16545122155904        0.30531681277693
C            2.48166993032098        0.72117293454428        0.77118395535309
O            2.57317429949881        1.45109009354148        1.74926171880416
C            3.65612440580191        0.35136758198651       -0.07249864582996
N            3.64678151860664       -0.43664637277911       -1.10401204447281
N            4.92471164337615       -0.47545829198429       -1.58250035540534
C            5.62957466244211        0.29335796195086       -0.81227588862064
C            7.07421127855602        0.59589625425149       -0.91686231827443
O            4.88820044772210        0.84395550883371        0.16121655892747
N           -0.43417800843688       -1.25988436207520       -0.89000251234021
C           -1.27992671293900       -1.97570529774986       -1.66998791534723
O           -0.91484386144569       -2.78943679183622       -2.54064014512749
C           -2.71417080392298       -1.75723613810383       -1.46070006941092
O           -3.52551269114227       -2.47891914873924       -2.26469331353763
H           -6.02397902971060        1.56404210030258        1.71625895218425
H           -6.64786670040164       -0.05764171998515        1.29578172044760
H           -6.54670137148198        1.20621059473337        0.04538403952475
H            0.64542180080131        0.33086762963108        2.96745475894845
H            0.32032838945645       -1.27637758264220        2.29027728917577
H           -1.02702752628689       -0.19075710296984        2.68107968682273
H           -0.23961898365786        2.25487653437297       -0.10045968921236
H           -1.38404528097022        1.92816972009484        1.21324632394707
H            0.28936591562119        2.38623419925519        1.58801712798828
H            1.39912138494003       -0.46166806448986       -0.49803015370908
H            7.49810937394705        0.06303311488803       -1.76423298560067
H            7.58718485238185        0.29633369611644       -0.00335345284723
H            7.22149872055256        1.66743328902727       -1.04993226854756
H           -2.93261968870977       -3.01697007741478       -2.83008664127788
