42
 energy: -82.975972110136 gnorm: 0.000336460182 xtb: 6.5.1 (579679a)
C            6.64896225176784        0.62559053296743       -1.17520807544724
O            5.27522041577902        0.45214204139781       -0.83068874209336
C            4.96203278773201        0.61789391040665        0.45963269794929
O            5.80825907085695        0.89978060756153        1.29703559774334
C            3.53385294773314        0.44084947300144        0.75879505376457
N            2.70709990766981        0.11104389847789       -0.28237043075478
C            1.43297618941718       -0.01654916049088        0.00631996780777
C            0.52948909864565       -0.37962952366109       -1.16660191455906
C            0.67968979269136        0.67001496693097       -2.27369045695222
C            0.89190574469965       -1.77790586407876       -1.68083580089988
N           -0.84293936904768       -0.37203849591613       -0.65148009571768
C           -1.92409970870622       -0.61152976217744       -1.37632071174999
O           -1.98147443017620       -0.90692403965997       -2.55809725234451
C           -3.20158716443813       -0.46667367163179       -0.58299806809687
N           -4.41288016111086       -0.57343411183049       -1.04101314003655
N           -5.20804348494257       -0.33374835046883        0.02007389944585
C           -6.64363642436905       -0.34788561625200       -0.15087707292459
C           -4.47697104593712       -0.08771702416978        1.08612929087241
C           -4.90440392396845        0.23807934401805        2.45703464894273
O           -3.20950654858570       -0.16639610958072        0.73178816122485
N            0.84775212251865        0.13316281751530        1.18862722607653
C            1.59739612425576        0.45242607557168        2.28663283238522
O            1.09542542319341        0.59632391832302        3.40931216951903
C            3.03941162308104        0.61383091862663        2.03250828150908
O            3.81225997262100        0.93617299611276        3.09096504918447
H            7.26748571206160       -0.10362597117973       -0.64563135416019
H            6.72515476638653        0.47209308731034       -2.25004583910671
H            6.98116184307695        1.63376136772997       -0.91397851285857
H            0.09397066838616        0.39708633742364       -3.14973428970181
H            1.73182629798256        0.73501467338426       -2.54973770986420
H            0.34842654205821        1.64245419080466       -1.91165123015143
H            1.95163412202840       -1.79234189744951       -1.93376632686346
H            0.70125015036078       -2.52153063981276       -0.90797623177150
H            0.30822635441846       -2.02613062076104       -2.56574485131065
H           -0.90526943463501       -0.14485424078864        0.34333480423551
H           -7.11219757620114       -0.46153359032281        0.82212738139897
H           -6.95081841664942        0.59228995614551       -0.60760099818237
H           -6.90068288880708       -1.17931468977282       -0.80354289336527
H           -5.23617597515321        1.27729038928383        2.50043472531385
H           -5.73928629213232       -0.39468415744847        2.75357064797036
H           -4.06886618414530        0.10356419214656        3.14160202656060
H            4.74796709957549        1.02358284231191        2.81105653700576
