43
 energy: -83.830589321057 gnorm: 0.000747000104 xtb: 6.5.1 (579679a)
C           -5.95528386092599        2.25775528699381       -0.95735960990599
O           -4.78861545715898        1.49129034187085       -0.69797040102605
C           -4.76982106936969        0.83594904338302        0.50248957032373
O           -5.73010624478003        0.93076404659786        1.28832482373883
C           -3.58544837903379        0.06762940282511        0.74545964475894
N           -2.60552759029867        0.05210052822728       -0.23498474053793
C           -1.53359361305261       -0.63059604862341       -0.03303683501318
C           -0.47471512890278       -0.72641136365752       -1.11738879370131
C           -0.76833541643305       -2.01179450100107       -1.91098190683730
C           -0.55347567818937        0.50722215111033       -2.02858387167129
N            0.82397849744540       -0.82228546017380       -0.44547863045606
C            2.00809314225063       -0.82203974752756       -1.24881962205886
O            2.00720567880215       -1.20947849873612       -2.44695846394472
C            3.14945013156482       -0.42220636809669       -0.55509468195875
N            4.44321859408331       -0.33130274131798       -1.02188655540986
N            5.12497594125269        0.15383232232470        0.01354955539222
C            6.54280691837892        0.39139541273286       -0.12005281149482
C            4.37982035766338        0.37069055672300        1.07395211523975
C            4.79647773159605        0.90648977421023        2.39026271657721
O            3.10222885985602        0.02867655137170        0.80190172324563
N           -1.32428311741815       -1.36069389963418        1.10398437155245
C           -2.23760012317877       -1.42703126944721        2.17212282193724
O           -1.95202343135630       -2.11364749067668        3.16535728777057
C           -3.41648241614694       -0.66249829319660        1.94019291773767
O           -4.37467408903234       -0.66238365349990        2.91180544852540
H           -5.80788430397355        2.74799592506275       -1.91945215473253
H           -6.10680369918446        3.01148295633363       -0.17765132738464
H           -6.84055439777380        1.61468296468349       -1.00232084309983
H           -1.80231217213201       -1.99699317344086       -2.25605178568352
H           -0.10992824276729       -2.09309544710114       -2.77372865402234
H           -0.62118790026028       -2.88088357953911       -1.27085143709612
H           -1.56556922917601        0.60709774004995       -2.42032019885499
H           -0.30882293624505        1.40487708269106       -1.46185384483465
H            0.14332443746690        0.40826214539438       -2.85943726763155
H            0.90123448264459       -0.14343751199562        0.30382535300501
H            6.84717799830204        0.06369704190341       -1.11119205519252
H            6.74799345534225        1.45387794222263        0.00188411813636
H            7.08127573434213       -0.16931442846186        0.64246692737941
H            5.63967080093715        0.33939842690431        2.78586459522310
H            3.96144485270366        0.84184539014898        3.08481730390328
H            5.10657002078352        1.94957333144852        2.30451593647451
H           -0.45464607201881       -1.86027538435880        1.21595013399328
H           -5.11925406660502       -0.09021850471320        2.60397312765395
