46
 energy: -87.016326984650 gnorm: 0.000501204805 xtb: 6.5.1 (579679a)
C           -3.31227235771456        3.91304549595507        0.45049410965972
O           -2.84768020564694        2.57706250715788        0.29521600368786
C           -3.74216712037715        1.70097711497983       -0.22198170155953
O           -4.88424419783227        2.05949141244085       -0.53334203984075
C           -3.25196560203777        0.34755530133862       -0.36063568773407
N           -1.95529677498789        0.08061460141717        0.00056542786679
C           -1.46674162375817       -1.11219015131208       -0.08271996287698
C           -0.00379408252524       -1.25978256337721        0.34852803883077
C            0.06326777482709       -1.88689220264697        1.75137282239317
C            0.84538716569365       -2.03670421083165       -0.67589281892828
N            0.49956813013898        0.12763433161096        0.44676187692096
C            1.88723662862847        0.31694751618792        0.67287515505900
O            2.35389718598200       -0.08382068195448        1.91973556170780
C            3.63753105624070       -0.68827513151783        1.95238888621886
C            2.56963989036845        1.13331896921220       -0.19637237397436
N            2.07356479626869        1.59558987276888       -1.36453397646294
N            3.08519296384292        2.32107442534531       -1.94473003630531
C            4.10600458053611        2.27270081583036       -1.16187026237733
C            5.43682914600879        2.89794360807556       -1.37073747152041
O            3.87633573753655        1.54488210994811       -0.02585606420791
N           -2.23041643979450       -2.17610072872039       -0.51768764474518
C           -1.75650084431961       -3.55422907113266       -0.59371518849573
C           -3.55753527207177       -2.00387465311799       -0.98300696360298
O           -4.17978762146857       -2.97329692010392       -1.43442014636954
C           -4.06204833972092       -0.67120757223282       -0.86382695767649
O           -5.34072667773955       -0.45567658432315       -1.26283579648341
H           -4.17025458690533        3.94460762935275        1.12856710129044
H           -3.60956408717513        4.33198851160549       -0.51554000807845
H           -2.48811075483899        4.49037166706977        0.86795439869169
H            1.07817382277383       -2.20929635205120        1.97245818143449
H           -0.23788763047925       -1.14512499532524        2.49122516631626
H           -0.59567446171585       -2.74797171796875        1.83676587522916
H            1.88445525659636       -1.71659222827392       -0.58506017150138
H            0.50832303595112       -1.82904548318223       -1.69079418423600
H            0.81621901289311       -3.10806206519579       -0.49999949266343
H            0.25524308516760        0.62495131460456       -0.41411018859999
H            3.76168032868326       -1.11646741392270        2.94860847674096
H            3.71925259290898       -1.48569120316349        1.20361652508120
H            4.43092297358484        0.04698432851303        1.77597671247351
H            5.65597659829885        3.60950025196134       -0.57358018961560
H            5.44680287051348        3.41680366670834       -2.32697317984497
H            6.21867784197032        2.13801019866451       -1.36696818901794
H           -1.05404692756447       -3.76858358664474        0.20354403685646
H           -2.61661794004902       -4.21657958408561       -0.48652423264801
H           -1.29001950913408       -3.74326089826467       -1.56175007366788
H           -5.55683141754549        0.49666934860524       -1.12428935342718
