46
 energy: -87.072880461465 gnorm: 0.000747213288 xtb: 6.5.1 (579679a)
C           -5.77043266335277       -1.44071409962226        0.65620169582447
O           -4.43663321967999       -1.15414808659809        0.27820343859029
C           -4.11542448287374        0.19955653648393        0.23246285421462
O           -5.00621120943119        1.04208518323649        0.48219920693073
C           -2.79296119046233        0.47240575091731       -0.12601542155714
N           -1.89687535377234       -0.54652630101353       -0.28970175533674
C           -0.70363504064626       -0.34338769399886       -0.71992614131116
C            0.24645112007940       -1.53152883055443       -0.69565692754803
C            0.18582825219673       -2.34112346031920       -1.99880345632733
C           -0.15396516838379       -2.45376455734907        0.46881934203588
N            1.63492898611176       -1.10021405698109       -0.48921102561373
C            2.02688911165154       -0.37623252675788        0.57652359565458
O            1.29360541124543        0.08892083965997        1.43239241774216
C            3.50390145628950       -0.18302196586334        0.57762938208237
N            4.33836238006368       -0.61505146201973       -0.32022991021865
N            5.58150992241849       -0.21611651925009        0.07410339023380
C            5.42497622044515        0.43269153358093        1.18787615227902
C            6.47434543032088        1.06539039879435        2.01705646793229
O            4.13690062322473        0.48940133494565        1.55722873709200
N           -0.30836612254439        0.92371037507557       -1.23685299310708
C            0.82362687700901        1.05588877414949       -2.15009414855190
C           -1.12871049539859        2.01112199948485       -1.12940253170289
O           -0.94010688392809        3.02848066223986       -1.79426857544316
C           -2.25278506409972        1.89062241209608       -0.09019279329144
C           -1.62720439978424        2.19975190874737        1.29502257869784
O           -3.24155347731250        2.85565968052541       -0.38750938459695
H           -6.48665664748694       -0.98641494079399       -0.03897147089592
H           -5.98390495592889       -1.07176720465673        1.66667388369431
H           -5.88494925510620       -2.52538059863289        0.63593247977081
H           -0.84676759201177       -2.63029498617753       -2.19029504441744
H            0.79173417530045       -3.24142700279405       -1.90851975345104
H            0.54852533070656       -1.76651229026383       -2.84804101567014
H            0.53876805174960       -3.29083195431099        0.53495606106283
H           -1.16073811421308       -2.83186530279613        0.29694636921373
H           -0.14387670621582       -1.90448203924635        1.40901775409000
H            2.34697995684326       -1.49791394233722       -1.07925533929947
H            7.44729907399979        0.89731941392221        1.56276874623476
H            6.46290555182172        0.64219986507650        3.02114975286673
H            6.29046437871168        2.13638169315204        2.09979439604212
H            0.60925991658982        1.85424103294993       -2.86338009336024
H            0.98749596189273        0.13324184630293       -2.69819139385668
H            1.73203426946029        1.30938795558034       -1.60047810621999
H           -1.24055525853612        3.21852351747643        1.30610031093376
H           -0.81606432441640        1.50300892525860        1.50036357214907
H           -2.38970809143163        2.10043743905351        2.06568182636343
H           -4.09871174111482        2.49829174363199       -0.05636812993851
