33
 energy: -58.559144809923 gnorm: 0.000681534296 xtb: 6.5.1 (579679a)
C            4.82529954126377        0.96843346801361        0.61818648083341
O            3.71090144140231        0.15961135362138        0.24719911007666
C            2.49594195559878        0.64747911729342        0.57370010922579
O            2.38404710973407        1.71064494678091        1.15245418214590
C            1.35049023272737       -0.21296388934965        0.15895991474879
C            1.46253781829978       -1.59695065324126       -0.04240776323572
O            2.67342267960912       -2.30056895397400        0.06389333532054
C            0.27777644172540       -2.38370053142958       -0.16091069249275
O            0.21162795605215       -3.62327274826709       -0.24004934503079
N           -0.91046644709010       -1.65000807690718       -0.07676969151051
C           -0.92604333871820       -0.24501617133107       -0.47416244846943
C           -0.93989570041503       -0.14871548219334       -2.02186993263295
C           -2.20092659939209        0.42288649359458        0.12878484949577
C           -2.18267987605720        0.25350417810189        1.65636237335425
C           -2.23492646204178        1.91393397442640       -0.22214132017994
N           -3.39126734069804       -0.20922183183193       -0.44642324835452
N            0.22302072412944        0.47007601345900        0.03660950814696
H            4.85583225522815        1.10146112032792        1.70327652453124
H            5.72176133110785        0.45323536239223        0.28107660284914
H            4.75768657882274        1.95000630810650        0.14111926112449
H            3.37576145246535       -1.84266200560594       -0.41280843596369
H           -1.71639992184080       -2.16985782518222       -0.39402843287609
H           -1.90914563456809       -0.46613906896939       -2.40443345024379
H           -0.74726157100726        0.87654182940290       -2.33370988229922
H           -0.16428530990779       -0.79034562670656       -2.43880640190010
H           -2.15449224625948       -0.80516441037556        1.91626412385372
H           -1.29771271799520        0.74099859176818        2.06946979809739
H           -3.07349805150861        0.69886846995779        2.09740327830526
H           -1.27521491435979        2.37407698019552        0.01937369886759
H           -2.43914484984357        2.05537411980921       -1.28337650120777
H           -3.01910467403226        2.41675510342969        0.34444430766234
H           -3.53837999955940       -1.11822868837476       -0.02557848483026
H           -4.20525986287165        0.34892553305839       -0.23110442741119
