42
 energy: -82.978666246504 gnorm: 0.000470328331 xtb: 6.5.1 (579679a)
C            5.09805463504285        2.36775108857934        1.48068998196657
O            4.75675293896623        1.10470956578354        0.92228715506464
C            3.44011940823354        0.88907815058115        0.70658750291176
O            2.60430302649568        1.74191725276279        0.98359195302172
C            3.11886635072212       -0.40836422270372        0.13048713297323
N            1.76053032457227       -0.56606841174744       -0.07072967468254
C            1.28404242145916       -1.64572386767375       -0.56812535485621
C           -0.21939856926186       -1.76695726921519       -0.74553198696160
C           -0.78654788988458       -2.87274269489507        0.15134312183388
C           -0.59456799000754       -1.97890159989280       -2.21551735552732
N           -0.71723674174687       -0.46141717458319       -0.29440503361314
C           -1.94384956432012       -0.04320359502813       -0.21333860771547
O           -2.91282231331823       -0.83672033140641       -0.57248815883100
C           -4.29984938411042       -0.47092322550074       -0.51232732182065
C           -2.11797050530320        1.30596319104077        0.28170811978420
N           -1.13872889354410        2.09477586859268        0.62503869235509
N           -1.69213480174977        3.25343164175324        1.02974910971430
C           -2.98363334356665        3.11923868144065        0.91596654170113
C           -4.02985934412983        4.10691469531633        1.24209595638410
O           -3.31208513265318        1.90731975859741        0.44677445514721
N            2.08358600673672       -2.70008906456267       -0.93210921301545
C            3.45580504691393       -2.68575602273457       -0.79451989331873
O            4.10743976238971       -3.65937599367918       -1.14940847209895
C            4.05247125896698       -1.42574757246843       -0.19721438740159
O            5.28235949170384       -1.37101177681676       -0.04171904990179
H            6.18089784092741        2.38208885079396        1.59961439749090
H            4.61523682367604        2.50268307848595        2.45327871108176
H            4.78589297964164        3.17932095440785        0.81640929586466
H           -0.58467476415827       -2.64467862821673        1.19693808725405
H           -0.31413844719993       -3.81882011159943       -0.10553337380185
H           -1.85983020538582       -2.96753065953032        0.00710018210943
H           -0.20727789627575       -1.16131145818159       -2.82156563241941
H           -0.16700615104808       -2.91668671784706       -2.56440512980944
H           -1.67492967099406       -2.02597104187149       -2.32760157706852
H            0.06424540690806        0.15782131479353        0.00433543774564
H           -4.84252742569146       -1.34186105628899       -0.87485874005708
H           -4.58412605075923       -0.24533993459782        0.51565504649939
H           -4.49016882632341        0.39024269198018       -1.15306241684896
H           -4.60638395122742        3.76156571562470        2.10090262798910
H           -3.57304260836562        5.06614260868251        1.47407439598491
H           -4.71486961530055        4.21279872687174        0.40200820196346
H            1.67705436298254       -3.52856240508220       -1.33217472710034
