46
 energy: -87.063695521439 gnorm: 0.000837807125 xtb: 6.5.1 (579679a)
C           -1.20776492898318        2.85640794470528        3.07700176094959
O           -1.10658715102152        1.68819467639404        2.27003004977706
C           -2.20445502410240        1.35177307685407        1.57446414945180
O           -3.22156287858045        2.02813911020045        1.63689704088930
C           -2.03763517955397        0.13395939453180        0.75237789275459
C           -3.09649574532695       -0.34392643093844       -0.01382943780800
O           -4.33173758642975        0.28437664664413       -0.10098180381741
C           -2.97126658827077       -1.60892768393717       -0.68068995996540
O           -3.88994623474910       -2.20688077976782       -1.27060485577662
N           -1.72477788121134       -2.20844214360224       -0.59049975078476
C           -1.65792830853840       -3.53295587685907       -1.20616719426473
C           -0.53524322279663       -1.55237676775494       -0.04692209323254
C            0.27978741740173       -2.53632614162911        0.81774278397611
C            0.37380041853299       -0.93727850838176       -1.20901193739223
C           -0.48384979986386       -0.13709961310945       -2.19896877630874
C            1.21440335154604       -1.96534970980213       -1.97173473687481
N            1.26271265474609       -0.01090728798385       -0.49987406145572
C            2.22800655214472        0.72475618671697       -1.05473625720628
O            2.60062897547737        0.67835788826415       -2.22352113874740
C            2.88580249912075        1.64439903471810       -0.08090327864813
N            3.82205655882492        2.50940727438212       -0.32782165891354
N            4.11709269342645        3.12058693011769        0.85760962817917
C            3.34356130867265        2.59009028194761        1.75135325893078
C            3.28096085721508        2.90825627158041        3.19511585852625
O            2.53940293069242        1.65213482210018        1.22466116592680
N           -0.84646979115746       -0.45832118075359        0.84010324645227
H           -0.24329099139436        2.98811638325837        3.56463721262750
H           -1.99318943279013        2.73550562270167        3.82822885126246
H           -1.43642970509777        3.72943922191245        2.45913203833667
H           -4.32300618644661        1.07534163859225        0.46938693780269
H           -1.86433646851212       -3.46291823902242       -2.27897580548811
H           -0.68206817965697       -3.98546822994777       -1.06178022139137
H           -2.41468091149290       -4.18246561218873       -0.75532677060487
H            1.10521752493257       -1.99112668787984        1.27186381789055
H           -0.36358798163556       -2.91226275385426        1.61177704563131
H            0.68327609470201       -3.37889502788500        0.26293214462449
H            0.15529065419276        0.34162493789113       -2.94056468186379
H           -1.05110849114027        0.63245942474941       -1.67636662114556
H           -1.17499916145598       -0.80256936964845       -2.71429739966024
H            0.57408887834730       -2.72709225423789       -2.41055302398349
H            1.75870140939200       -1.47706255184353       -2.78003095063543
H            1.93841072492836       -2.44320526625290       -1.31453213005735
H            0.91819344218086        0.23184536320843        0.43260756535726
H            4.03036061586762        3.65783098469455        3.43620569810072
H            2.29202350122366        3.28941039857094        3.45099295682894
H            3.45863676664237        2.00944760253253        3.78496244175811
