46
 energy: -87.049400221779 gnorm: 0.000682496764 xtb: 6.5.1 (579679a)
C           -4.80703305702787       -1.58863918400870       -2.68354545168565
O           -3.77108510786982       -1.06424958688693       -1.86074558980546
C           -3.89618127298321       -1.29058680736063       -0.53687944168003
O           -4.84923881137094       -1.93321922089196       -0.09460708040763
C           -2.83766941204406       -0.72240217677734        0.28044962119600
C           -2.83850163686426       -0.86967963917039        1.63576107230214
O           -3.79573755488044       -1.53268894818023        2.29903334970552
C           -1.77948102596243       -0.18391682797724        2.54800882077847
C           -2.30870406253131        1.28081956406215        2.77911338441295
O           -1.43782135064554       -0.81201195157663        3.61212245784997
N           -0.53904008433106        0.01875718142182        1.55803259146438
C            0.71416339234217        0.22252750216089        2.26207170607853
C           -0.73385058634581        0.27216219018076        0.25197133362456
C            0.31312799443719        0.99564273864216       -0.61232085082512
C            0.29292759869293        2.49111985459408       -0.27730824981237
C           -0.01927337962683        0.81437794719522       -2.10031103916322
N            1.67127843250761        0.49583149886174       -0.37711419284272
C            2.02642309509792       -0.78819453740889       -0.56009874179222
O            1.28161045855630       -1.69171100261075       -0.90776939261948
C            3.46458863991439       -1.03568676325717       -0.26078455972083
N            4.09801494143779       -2.16607880079564       -0.31830835827902
N            5.38300799554313       -1.91826335118893        0.06864418187970
C            5.45278089338025       -0.65320063473250        0.34027762690010
C            6.62972991514818        0.11045523488300        0.80822249855743
O            4.27394187502687       -0.03627481084748        0.15433804384564
N           -1.82115314436362       -0.02462803557586       -0.39128955965765
H           -5.77534119657818       -1.17167869920548       -2.39216120777887
H           -4.85126386288002       -2.67867612854977       -2.60005306616945
H           -4.57447047310403       -1.30370525342862       -3.70834857896083
H           -4.46750667210554       -1.87722632590544        1.66602058789511
H           -2.50836329295513        1.78765119462963        1.83745451107172
H           -1.56054989885934        1.83716223202357        3.33960405732254
H           -3.22383765264546        1.22551418364018        3.36637046518413
H            1.11965650099975        1.22213260347260        2.09942603473981
H            0.52563228099097        0.09066716602738        3.33204494303942
H            1.46303197034474       -0.51260074563740        1.95612562012834
H            0.56021900676814        2.67113194235877        0.76176025327774
H           -0.70764722704848        2.88438271757140       -0.45240088882411
H            0.99555449879049        3.02762217071014       -0.91305738266646
H           -0.98279391682098        1.27308837337858       -2.31588316597836
H            0.74864641939193        1.29095733378488       -2.70719990782958
H           -0.07429078816067       -0.24370185987300       -2.35308133276774
H            2.38514205100433        1.16655684034875       -0.15512065732111
H            7.50817128515966       -0.53009431237219        0.80431176079277
H            6.79763951384112        0.96948092555179        0.16005808657428
H            6.45554470863147        0.48107220871841        1.81855068796685
