43
 energy: -83.895835275441 gnorm: 0.000539305291 xtb: 6.5.1 (579679a)
C           -5.77291917765908        0.93179625530806       -0.00631992652737
O           -4.42345393003292        0.65659096102536        0.31392748477199
C           -3.74291396967325       -0.30029474665007       -0.52952549355590
C           -3.52800079447381        0.29947942529289       -1.93297903571639
O           -4.48802968340066       -1.46823079932337       -0.65402406715201
C           -2.39770179846618       -0.57101373751629        0.15034446108632
N           -1.43174524040554        0.36974251010350       -0.06762670317172
C           -0.26893315824400        0.22706818094626        0.47279569742781
C            0.80279585998869        1.28257781807654        0.30051356345060
C            0.97983089086136        2.03822468737601        1.62679737244691
C            0.41641579749383        2.23968024502506       -0.83085519705738
N            2.05728849324482        0.59083631086516       -0.04355094918406
C            3.23013252066287        1.22287345881631       -0.22009040819678
O            3.42257698625851        2.42297971547764       -0.09363396519896
C            4.33583836101991        0.29643082166795       -0.58672293217639
N            5.57390375307846        0.60127521226141       -0.82609894484521
N            6.21955716649025       -0.56626716753718       -1.10968129703605
C            5.33555548051134       -1.51112294841909       -1.02550635282903
C            5.53638741134009       -2.96062695975529       -1.24102565450927
O            4.12356240019558       -1.03332374871696       -0.69874890682398
N            0.02017413573322       -0.84972663541981        1.27841816402536
C           -0.87170037924326       -1.86435782628882        1.56510395205505
O           -0.51099120616713       -2.79226225627693        2.29295629691573
C           -2.21469082799297       -1.70315956632235        0.94576531822635
O           -3.11520399663230       -2.58387798662757        1.15635528752296
H           -6.32822360238969        0.01470369211614       -0.24119303631569
H           -5.85812212806020        1.62391994020731       -0.85546516739999
H           -6.22421769568771        1.40208911413989        0.87119622270756
H           -2.92359651067379       -0.38907007753120       -2.52056836184802
H           -3.01260259802709        1.25420036983767       -1.85201589917326
H           -4.48572136269222        0.43995015127415       -2.42969725804371
H            1.70804395880597        2.83962263329510        1.51956124514371
H            1.31794989443799        1.35355471683318        2.40292924995153
H            0.02392588557745        2.46739346347552        1.92406716062567
H            1.16854896159898        3.01792466687178       -0.94401372017490
H            0.32524367015908        1.68965615526787       -1.76636766782536
H           -0.54370568908297        2.69947481679754       -0.60018612005743
H            2.01012527754681       -0.39367147924949       -0.25156305108210
H            5.28038840452619       -3.51058664101858       -0.33538570201207
H            6.57462293253284       -3.15034076792369       -1.50158059424215
H            4.88793190529757       -3.31168335346262       -2.04347541719991
H            0.93696690015909       -0.93499278486635        1.68506178034640
H           -4.14529729851545       -2.08743683945657        0.08240857265525
