47
 energy: -79.474511386550 gnorm: 0.000317152421 xtb: 6.5.1 (579679a)
C           -4.23684655566569       -2.22130706194120        1.25887607485711
N           -3.10777887169059       -1.36255592977980        0.88839238963132
C           -3.22520637640911       -0.26135396459000        0.08059207748579
C           -4.55530430556600        0.16110903864609       -0.53035943738403
C           -4.81570196489543       -0.66962382354548       -1.79506606801878
C           -4.48228076076239        1.65297861043156       -0.90449602113530
N           -5.63945250074538       -0.03719236278219        0.41639555169621
N           -2.19929818187789        0.46271220061449       -0.24804419528838
C           -0.95421520122406        0.19229709602532        0.23446831028287
C            0.13864762293219        1.08909212573772       -0.25280085837714
O            0.11054944647398        1.65967142601054       -1.32946483554573
N            1.18551947573861        1.21489176621476        0.60464421152683
C            2.33954413727900        1.99815426315541        0.23418724378140
C            3.59488739389399        1.20688477208276        0.26893499022213
C            4.83674066376826        1.88787006547504        0.35112639833711
C            6.00656984814150        1.20229859102344        0.41634296852769
C            6.02755027330486       -0.26326589934708        0.21417197645038
C            6.46416472994018       -0.49524313211441       -1.26712163024399
F            6.98910859741318       -0.86326474093122        0.98086261057738
C            4.71474568142828       -0.92933367550565        0.36482058564698
C            3.56508144440192       -0.20894470971035        0.30257216364640
C           -0.77126798849174       -0.87156443039274        1.06734177000675
O            0.42386675669630       -1.22768119301394        1.58560693750589
C           -1.88803526135535       -1.71970015322488        1.43599015631822
O           -1.74459014291355       -2.68656547047518        2.17864673404814
H           -4.88973582589442       -2.37292211095195        0.40560113285204
H           -4.79712208904139       -1.75585830114883        2.06828842878389
H           -3.83640297391215       -3.17834170957028        1.59284009008870
H           -3.98616709213668       -0.55103488570150       -2.49108873926107
H           -4.92351512345491       -1.72557034652981       -1.55445248799805
H           -5.73127726167228       -0.32616470183085       -2.27445807638474
H           -4.23275534099180        2.24548068439436       -0.02606177516911
H           -5.44795034165909        1.97526295312872       -1.28918892916798
H           -3.71949377754185        1.81288771750227       -1.66517637181648
H           -5.58118588960683        0.62304897535111        1.17816051278213
H           -6.53575713398376        0.05427752856278       -0.03799073455189
H            1.18644688160412        0.76831399007603        1.50533691724923
H            2.43187415588310        2.88332895857856        0.87353859229261
H            2.17015846530586        2.36142242804039       -0.79217119711619
H            4.83274174636399        2.96948959923322        0.42366092621280
H            6.95939403853332        1.70298412530110        0.53880398953432
H            5.75729552950086       -0.03692049953813       -1.95242836756328
H            6.51304257213888       -1.56766860871409       -1.44103716217957
H            7.45045104715868       -0.05609256511651       -1.39814891228704
H            4.71236807912724       -2.00988291240570        0.44121406115926
H            2.60224274518764       -0.70745830983147        0.34017902435413
H            0.28834962927887       -2.01894441689655        2.14406997362832
