42
 energy: -83.647731895148 gnorm: 0.000981545872 xtb: 6.5.1 (579679a)
C            5.43019494881517        3.39694412611308        0.18515060369513
O            4.67351954494140        2.44167917455497       -0.54062641173654
C            3.69644485606346        1.80509319447004        0.16115214877752
O            3.49875910127515        2.08639050125476        1.33941604533803
C            2.95606465613326        0.80805146248423       -0.59231599159470
N            1.97673442331333        0.18536880779879        0.16210757647996
C            1.24087109179949       -0.73679226324960       -0.34285790812364
C            0.18347650041424       -1.41290863384331        0.52288573589533
C            0.24830815832796       -2.94144276904570        0.38713356650029
C            0.43809233382445       -1.02474327347765        1.98319701601600
N           -1.15138406412093       -0.91134334115838        0.17906583278721
C           -1.83356878659114       -1.20881062531548       -0.95744948576097
O           -1.33674076229597       -1.80612343614005       -1.91776491782245
C           -3.22052488350142       -0.54459229690677       -1.04472699204152
C           -4.21741999665234       -1.46931392554315       -1.76539606303529
N           -2.96724325853165        0.69370012674560       -1.78835200781753
N           -3.29256552503309        1.70473967220995       -0.93405697766492
C           -3.70826425451370        1.24042739684325        0.18335240885122
C           -4.19544613674310        1.99185201161783        1.37210348222505
O           -3.70224743626528       -0.17177640998519        0.24112376477907
N            1.39159490243353       -1.13828106650515       -1.65031537923307
C            2.31380192514824       -0.61432605846723       -2.50995259372319
O            2.39210202318748       -1.03827686090657       -3.66464180354741
C            3.19602040666351        0.47949945301105       -1.95126735307054
O            4.04824979921072        1.00024687675483       -2.69933618920957
H            5.94438596420952        2.92551244767055        1.02884963391563
H            6.16388955119770        3.81542032057544       -0.50272675714532
H            4.78737133603042        4.19561534738984        0.56957096461817
H            0.01127244611899       -3.26339616408649       -0.62480210038209
H           -0.46557206293233       -3.39878411625593        1.06994370019884
H            1.24884262163438       -3.28769893513453        0.64191453826980
H            1.42946128198559       -1.35843989475106        2.28577021121898
H            0.38624936126270        0.05743413448052        2.10284447510834
H           -0.30245638943728       -1.49153505845642        2.62952108461170
H           -1.72118104653099       -0.64575454598824        0.97030327217283
H           -4.42004887100823       -2.34931467932373       -1.15770430166907
H           -5.14724479707191       -0.93167894607328       -1.93730325423493
H           -3.79584354652648       -1.77685778275499       -2.72076327355357
H           -4.10221445532361        3.06026125165601        1.18399289430407
H           -5.24275497558411        1.76208724667115        1.57956837214735
H           -3.61862060182636        1.73756758681484        2.26442801334100
H            0.78563361648772       -1.86569805574751       -2.01191057987888
