47
 energy: -79.486128619469 gnorm: 0.000646755888 xtb: 6.5.1 (579679a)
C            5.21281069140610        1.62372813189373       -1.43376766826939
C            4.36882335107485        1.73634135354574       -0.13900224172317
C            5.21421446590046        1.77882876352037        1.06967357901285
C            4.87633499775844        1.05954894965704        2.17265362689831
F            5.64110357853636        1.11615042837975        3.25477612389557
C            3.74454396210240        0.23039131350211        2.21117016406822
C            2.92678073119529        0.13082858010155        1.09404598601613
C            3.21034384876025        0.81779467704255       -0.07308415175756
C            2.35805128587612        0.64806326457188       -1.28894600382063
N            1.04252723406273        0.14390235459993       -0.98048375889114
C            0.71892415962123       -1.14794994367866       -1.21566274523071
O            1.52550795025436       -1.95981498111003       -1.66390521128875
C           -0.67805040281603       -1.49322721298813       -0.88693131562473
N           -1.46050018045487       -0.48888298145480       -0.39695376642032
C           -2.70306166906753       -0.70958543246130       -0.08707332829432
C           -3.47332634764756        0.50359990055786        0.41790501505904
C           -4.21785487164091        1.14235636909744       -0.76365907537059
C           -2.47549590187099        1.52161973173126        0.99690263324347
N           -4.42170916703033        0.12899706439065        1.45553376223402
N           -3.27893237474298       -1.93707716384256       -0.26025501079291
C           -4.68721607932130       -2.19900737022462        0.05773129352837
C           -2.56069133428261       -3.04681729202348       -0.71575569931183
O           -3.08873191449454       -4.14393393007074       -0.82277502926908
C           -1.16837766946017       -2.76173472252816       -1.05040512843688
O           -0.44188560820577       -3.78725411511273       -1.50618851310402
H            5.64883798474753        0.62898738807578       -1.49314092175908
H            6.00619197600025        2.36776481222581       -1.41085336205779
H            4.58741725348097        1.80059044198303       -2.30494128096964
H            3.91788393928689        2.74626380397755       -0.19868811482617
H            6.09650646685242        2.40671319881588        1.05689484513533
H            3.52775145720077       -0.33291053401347        3.11112766905645
H            2.05723229066126       -0.51506502671790        1.13041714275481
H            2.84497499863041       -0.09433870005264       -1.94014535025689
H            2.27543195752471        1.58453733331600       -1.84480396266947
H            0.34541819429286        0.76797548784382       -0.60261829128119
H           -4.96257925227640        0.46241786375135       -1.17520481658204
H           -3.50562249929082        1.40030167807300       -1.54645070055362
H           -4.71849944591746        2.05040513149281       -0.43015078308583
H           -1.88550573440521        1.06020073887127        1.78631463765563
H           -3.01991243703825        2.36931354325708        1.40853112156611
H           -1.80160008503195        1.87473176138255        0.21897751232704
H           -5.04893584293690        0.89914825082773        1.63887340298795
H           -3.92759393998215       -0.08982396344209        2.30957232710241
H           -5.30229685508865       -1.36272241012834       -0.25719874521260
H           -4.79779811439495       -2.34637848473929        1.13120489041634
H           -4.99621632668912       -3.10157802114334       -0.47060492381478
H            0.47477927885074       -3.48340203077969       -1.69438483227377
