47
 energy: -80.232416816026 gnorm: 0.000636085986 xtb: 6.5.1 (579679a)
C           -4.25982653056796        2.25035126259689       -1.33727236739404
N           -3.15082995559960        1.35760684394627       -0.99705465985725
C           -3.27646211747574        0.27769193063680       -0.15862479123874
C           -4.59219528618125       -0.07420782658617        0.52563611785218
C           -4.75965647917343        0.81141783285071        1.76971465363860
C           -4.55382769727561       -1.55025289553658        0.95703064243764
N           -5.71736081237704        0.14263319417429       -0.37863415826366
N           -2.26667168686466       -0.47874681108746        0.13650654296456
C           -1.02889410157305       -0.26857289284447       -0.40162230946187
C            0.03583804283206       -1.21647309186412        0.07870030565895
O           -0.05936737065230       -1.80159714047747        1.15039621164931
N            1.07678019486952       -1.37393289997187       -0.75934392874696
C            2.21650950986123       -2.20689856702678       -0.41140178254083
C            3.42395393828593       -1.39260268227824        0.00961836352065
C            4.62371127872487       -2.05361137877527        0.26925443224899
C            5.74932596368841       -1.34456771408332        0.65804009234675
C            5.70842015897290        0.04344948736849        0.79838937572153
C            6.93554120147928        0.81150873318489        1.18490966023218
F            8.54390391594900        1.44186873083529       -1.31303348952341
C            4.50417785224380        0.69727421431048        0.54240239183926
C            3.37535257888283       -0.01022465531268        0.15383759302050
C           -0.84302572656882        0.77173020157418       -1.26300747548107
O            0.34164731127724        1.07750323748646       -1.83923601584585
C           -1.94350091252841        1.65012828960580       -1.60621536502148
O           -1.80008556061190        2.59468122815518       -2.38216045809371
H           -4.89722680584635        1.77703392621063       -2.08177679349445
H           -4.84814900003772        2.47483191737528       -0.45376151788582
H           -3.84138230064931        3.17050234414540       -1.74495022119848
H           -5.65143875041200        0.50624864515429        2.31554582411827
H           -4.86525285916443        1.85936102570523        1.49503637600853
H           -3.89347626909181        0.70434957896795        2.42282637419098
H           -3.76369512351072       -1.71404916976103        1.68932193154254
H           -4.37015888335792       -2.18798853075727        0.09352793384633
H           -5.51160576686724       -1.82032164925408        1.39757890062368
H           -5.74814082001958       -0.59703908187033       -1.06809576395447
H           -6.57863209015923        0.10371319951534        0.14678731713012
H            1.10139764296377       -0.89094274321287       -1.64121255164930
H            1.91037873901147       -2.87171456554077        0.40510604607855
H            2.46933191091448       -2.82902958248589       -1.27669235909296
H            4.67504461408053       -3.13243516474728        0.16754839783410
H            6.67048523328656       -1.88221379229516        0.86041371876392
H            7.56807313666777        0.22609249896039        1.85258484005957
H            7.52179615802619        1.04958929340180        0.28145509370785
H            6.67233732305357        1.74850460935961        1.67562079259661
H            4.44041237435472        1.77543053188251        0.65106722902545
H            2.45127456301483        0.52278927794093       -0.04196607798104
H            0.20516826412163        1.85113180033432       -2.41794307179504
