47
 energy: -79.426297393884 gnorm: 0.000259575431 xtb: 6.5.1 (579679a)
C           -2.98368087733628        0.88750037567522       -2.46301688948418
N           -2.02281595882930        0.85345864201583       -1.35152960440360
C           -2.27402853446651        0.26823851357765       -0.14750048543215
C           -3.58865757336759       -0.39768683164550        0.22274215691043
C           -3.60663245756192       -0.67038835669506        1.73545458522389
C           -3.72619388161842       -1.71929243526883       -0.54581582754544
N           -4.69085412875835        0.48471741828869       -0.12915235760311
N           -1.31735542879209        0.21276526277137        0.73954439026006
C           -0.13367574359342        0.75570725385440        0.54487214865741
C            0.95633115348539        0.36818615191905        1.72203064623665
C            0.25331058650762        1.47732541365314        2.67433216228979
O            0.85297436975232       -0.81282437893228        2.10646161299926
N            2.20694066797793        0.88631685836673        1.40723053848823
C            3.40287451840042        0.10405828891859        1.62003945819619
C            3.82427530707310       -0.59560901882675        0.33793702781895
C            3.11041109565641       -1.70317899871447       -0.11419963701898
C            3.50412701753820       -2.36185871707689       -1.26950364968748
C            4.61294921847947       -1.89076740498505       -1.95131495031988
F            5.00042061388350       -2.52561455403045       -3.06446765167622
C            5.33589652529515       -0.78934101149967       -1.52950486041206
C            4.92730143736393       -0.13652597662259       -0.37460218731585
C            0.17752228048840        1.47360104972914       -0.55768036832145
O            1.32082037128805        2.11810437076355       -0.78113315073528
C           -0.81521731710212        1.46633479978768       -1.63783847552270
O           -0.57878035148356        2.02090643828223       -2.69684043543687
H           -3.99315347847079        0.80259141795926       -2.07019841930621
H           -2.86049769163926        1.83693043075912       -2.98308135394280
H           -2.76421666408427        0.06672153691678       -3.14523326343690
H           -4.56498384446622       -1.10812041665662        2.00811802086562
H           -2.80750470692986       -1.35841788502475        2.00757985404554
H           -3.47434431637963        0.26049932093004        2.28379998401164
H           -2.87747540169798       -2.36652325540940       -0.32921564632820
H           -3.77290537686658       -1.54159648220528       -1.61799880515026
H           -4.64178044345370       -2.21988294751301       -0.23475676818174
H           -5.57109568641685        0.00669301830492       -0.00050734966965
H           -4.67768721090987        1.31352789134197        0.44662899918602
H           -0.75183154129225        1.12849302038303        2.88787174970201
H            0.87440297432761        1.44889533570088        3.56658572425300
H            0.25228373505938        2.47002097826797        2.23967234634115
H            2.30613077564950        1.83597773731208        1.08641754431699
H            4.18877957775883        0.78381803348167        1.95401087679912
H            3.18233987670806       -0.63529465677475        2.39685076778202
H            2.24875092574026       -2.05333770173195        0.44092605393106
H            2.96282060675878       -3.22492253761947       -1.63482933291378
H            6.19596339894490       -0.44844368288420       -2.09082765523450
H            5.47638874724464        0.72991226349877       -0.02737047625569
H            1.32135183413041        2.49832742765863       -1.68099104697285
