43
 energy: -83.136527822202 gnorm: 0.000441096005 xtb: 6.5.1 (579679a)
C            6.03165571705965       -0.43219691696749       -1.21830103217451
O            4.66675132000158       -0.25401543144522       -0.82184219289777
C            4.34827633252361       -0.65600159651297        0.40719599306460
O            5.14085604378748       -1.14915223402946        1.17294577663764
C            2.90420953568344       -0.41687502588399        0.71487048796748
N            2.15926652214411        0.14554665020008       -0.29626815398107
C            0.91937679344562        0.41199534322318       -0.09588561290038
C            0.04361347989996        0.98908164920150       -1.18677151491663
C            0.59481107378688        0.64669809538093       -2.57002629138507
C           -0.09225672573556        2.49940669726640       -0.98226328021562
N           -1.26631803906256        0.31156394368779       -1.00670576202394
C           -2.43860022029810        0.81523566540431       -1.33538277434724
O           -2.73633274735071        1.79907704144401       -1.94491012323145
C           -3.64304654366617       -0.10480261668638       -0.71938638879740
C           -4.97154971511865        0.41366326970997       -1.24540944038983
N           -3.33704925954705       -1.44451979740877       -0.99898282491118
N           -3.00895910169531       -2.04444852714558        0.06927202136463
C           -3.14100272397481       -1.15677814368573        1.10951261994620
C           -2.84496496036096       -1.43308715929887        2.50719850895347
O           -3.52678690285788       -0.00697575824710        0.68078707726682
N            0.30501895237596        0.17431232230165        1.10441911048312
C            0.91292390777251       -0.48668583042817        2.14168292306203
O            0.29882081288963       -0.80859842931017        3.15010069315867
C            2.32709371679950       -0.76254996634609        1.91047491957656
O            2.98137337837851       -1.36207513849622        2.90496583643522
H            6.10716726831261       -0.06589738453505       -2.23998907114617
H            6.69048846727403        0.13868252968297       -0.55926531005916
H            6.29987893020074       -1.49048806147584       -1.17228495410363
H           -0.05208512554720        1.06426996200137       -3.33921177345690
H            0.65025108327186       -0.43338982884627       -2.69290056981054
H            1.59504120530222        1.06647385695203       -2.66817139565840
H           -0.65547030754342        2.94772333738123       -1.79829239365080
H           -0.59758939113912        2.70614392923645       -0.04107934774512
H            0.90366264448161        2.94022966973764       -0.95650631083746
H           -1.23963629417861       -0.60404793796502       -0.58742049829768
H           -5.78011439858693       -0.15467719119124       -0.79129386201864
H           -5.06385924028745        1.46660910063024       -0.98721581000019
H           -4.99009827762538        0.29728381162818       -2.32676644486088
H           -3.44465728376163       -0.79978772785774        3.15989329608930
H           -2.97933261980781       -2.49071349298108        2.72826312474578
H           -1.78806919502154       -1.18671204000725        2.69621247164076
H           -0.65477878062530        0.44248475788257        1.24387357497745
H            2.37202066840563       -1.53200739620089        3.64361669846142
