42
 energy: -82.988652383435 gnorm: 0.000356093658 xtb: 6.5.1 (579679a)
C           -2.96818574270423        3.76490633045681        0.41367976097068
O           -2.57097804351495        2.39696200337434        0.27578760501241
C           -3.56522728813192        1.48531833894148        0.36433409613386
O           -4.71635803128689        1.82000337575772        0.53193761508017
C           -3.12101415550820        0.09592651609659        0.15579203181412
C           -4.04059912794587       -0.80205866860501       -0.45481682874134
O           -5.22378656444087       -0.56479039459889       -0.69703467333759
C           -3.46412201251170       -2.12967084660078       -0.87489700684207
O           -4.08117879316131       -3.03434220780204       -1.39694556644702
N           -2.09879200884687       -2.27158034696985       -0.66286152734616
C           -1.28643242119077       -1.42096485595049        0.00483331007771
C            0.14594272325318       -1.89516577608917        0.23008334499053
C            0.23315388595266       -2.59736057592967        1.59494199068538
C            0.59465878493668       -2.86912692440672       -0.87252998253362
N            1.02342795886064       -0.72591941240823        0.13706646587841
C            2.31227643394850       -0.71871259008959        0.57763188837618
O            2.81833610149903       -1.53775044765354        1.31579132905925
C            3.02443302281681        0.47223940324508        0.05545094625621
N            2.53051045553742        1.37451838063164       -0.73915704242521
N            3.52661070670797        2.26877228133637       -0.98415323605310
C            4.56775768276657        1.85343058366337       -0.32563638764097
C            5.91073514229413        2.47049411662724       -0.26766547780826
O            4.31157666128370        0.72411830199838        0.34982547462384
N           -1.80238321455669       -0.28969295916835        0.44193767172287
C           -1.04820825719393        0.55626039621852        1.37726566876308
H           -3.40810488788665        3.93133078411352        1.40008405550224
H           -3.69748691027904        4.02676062045003       -0.35755300021508
H           -2.06621008630224        4.36212907185545        0.29869120277238
H           -1.72294880676027       -3.14998192888036       -0.98486347949717
H           -0.62485101423747       -3.25876701834843        1.70563949785324
H            1.14223272370644       -3.19210287080339        1.64844320564229
H            0.23905651664709       -1.88299870599150        2.41468271297017
H            0.10268817696925       -3.83423619180628       -0.77038607887678
H            1.66731513813575       -3.02626305473360       -0.77045925176358
H            0.39416433434161       -2.45544411871189       -1.85886263019314
H            0.81863018399556       -0.09048336040334       -0.62244833386201
H            6.65507624835937        1.77321037290018       -0.65275893578143
H            6.16913467377059        2.70142622301827        0.76568282922304
H            5.92345688339637        3.38147515372991       -0.86077398718669
H           -1.74873148987431        1.02807069978094        2.06122271815185
H           -0.36082932611508       -0.05536572372538        1.94916294412775
H           -0.49474625673296        1.31542702547765        0.82966106085650
