42
 energy: -83.017533048385 gnorm: 0.000513826358 xtb: 6.5.1 (579679a)
C           -6.11004711775484       -1.96748829072501        0.40824078851480
O           -5.03393487419002       -1.09364910181937        0.05497700392248
C           -3.86191975596739       -1.33301133950287        0.63782418974291
O           -3.69187583166546       -2.23286142416451        1.43007034158764
C           -2.77037043965493       -0.39187362333671        0.23768163154761
N           -1.60738394981958       -0.63263798981747        0.92321128214902
C           -0.57000649792277        0.09415892440931        0.69561178652721
C            0.70537068197255       -0.11988778339734        1.47998005343946
C            0.78471918733454        0.97559033570895        2.55465671252037
C            0.71461312712072       -1.51665751202791        2.10782491358883
N            1.82410963629914        0.01389110837551        0.54057211980123
C            3.12140288941277       -0.04101597546180        0.92154801027602
O            3.52269737252402       -0.10722558388388        2.06808005325966
C            4.01722117035905        0.00664277031756       -0.26219387683950
N            3.64326720045319        0.00301685716313       -1.50666741967878
N            4.77852970625679        0.05028088631017       -2.25786098441561
C            5.77340667165903        0.08112388927559       -1.42300007427262
C            7.21722032285523        0.14694050412927       -1.73830799135867
O            5.35659737417432        0.05357689068531       -0.14860707830002
N           -0.59659067722322        1.11520227547459       -0.20702041217621
C           -1.69434276209328        1.45195641883626       -0.97135136697305
O           -1.62034219867689        2.37941672454045       -1.76429700833502
C           -2.86422211270317        0.60831142205794       -0.70609740480319
O           -4.01899735156218        0.79213488694521       -1.35942195598581
C           -4.19912072000791        1.79347591686266       -2.36130285708987
H           -6.99136864317459       -1.60356143971665       -0.11580927647197
H           -6.27422140985930       -1.94520206385835        1.48829534985274
H           -5.87976025603483       -2.98972196351447        0.09846835859365
H           -0.11167813578244        0.93864362615199        3.17156677939791
H            1.65703833574881        0.82348661491205        3.18646894175248
H            0.85243612997531        1.95398693062875        2.08315495243939
H            1.61741577028499       -1.65024972610068        2.70060513026265
H            0.68080970646744       -2.27496591163313        1.32696485865860
H           -0.15776686387666       -1.63082097661250        2.74962347725827
H            1.62792085073819       -0.05106110459343       -0.44668716994499
H            7.74859216500518       -0.65316082227486       -1.22358594441778
H            7.62738712867162        1.09810912252273       -1.39742174941953
H            7.36256593652515        0.05514528752595       -2.81196689768351
H            0.22349372336417        1.68605697820926       -0.34715879326478
H           -3.51465762360874        1.64093581231915       -3.19873193158293
H           -5.22821930250421        1.67834181856435       -2.70387429281919
H           -4.05998556312083        2.79462763051738       -1.94745824926154
