42
 energy: -82.985028072658 gnorm: 0.000201824936 xtb: 6.5.1 (579679a)
C           -4.85600266586704       -2.97898867911778       -0.83690586523535
O           -3.74240897756961       -2.10437638508720       -0.63011179510063
C           -3.67224488881491       -1.50768421458423        0.55362523684061
O           -4.52494816855851       -1.66942853650952        1.42425366840642
C           -2.50677859114939       -0.64432273657857        0.73710236056407
C           -2.30426031473712       -0.08448448520211        1.97196021278386
O           -3.14378275834270       -0.21440496444683        2.97661476699439
C           -1.00254214556377        1.73363171230800        1.42248302295026
C           -1.07898402494258        3.05055704334672        2.10725757187173
O           -1.18984285790192        0.63880009142735        2.27744572870042
N           -0.76644336996862        1.60355925027776        0.19376574111996
C           -0.77827080248560        0.38438909856960       -0.48880664109044
C            0.21094515932140        0.32207893955495       -1.64214282532619
C            0.08582800297630        1.58853683975360       -2.49830533446630
C           -0.01560206733893       -0.94121087418851       -2.47583583699380
N            1.54170641453847        0.27345765124155       -1.01546617520028
C            2.69381595766537        0.21305407194420       -1.70637650091468
O            2.79839676804573        0.24761015640582       -2.92246623050395
C            3.88230805365077        0.08890852654684       -0.82033404301759
N            5.12874590410822        0.01595030602683       -1.16984049236389
N            5.85280246414353       -0.11833050846489       -0.02201196806036
C            5.00352230310076       -0.12100162632151        0.95710015189563
C            5.28514478218024       -0.25211867531490        2.40315949439561
O            3.73905591098199        0.00795081542250        0.52111907299690
N           -1.59001190981469       -0.58255722221154       -0.31381831042739
H           -4.75176205141893       -3.38306896921958       -1.84183258004707
H           -4.84028963360213       -3.78474860309192       -0.09942682188918
H           -5.79162576136950       -2.42285393818848       -0.74508915329456
H           -3.91456055785075       -0.78418176406455        2.66532514170444
H           -0.94001701235681        3.85467337322159        1.38955724468178
H           -0.31133687165498        3.10398346490567        2.87906488385120
H           -2.04751475734503        3.15037264764424        2.59671638444166
H            0.77748812889840        1.54788645886914       -3.33795677522670
H            0.30572275579632        2.46614429273196       -1.89250709187218
H           -0.93128856479425        1.66789625727417       -2.87919992818289
H           -1.02742310300967       -0.92892774433466       -2.87784849710169
H            0.69553968708695       -0.98448960604941       -3.29877902165691
H            0.10167957058607       -1.82518865145832       -1.85087258971179
H            1.57885337474505        0.22739437297098       -0.01004044086781
H            6.35451479768833       -0.37177876528967        2.55907018983815
H            4.93515979160395        0.63307393536701        2.93385297668764
H            4.75671102935946       -1.11576435608439        2.80650106782500
