43
 energy: -83.171456883687 gnorm: 0.000459766599 xtb: 6.5.1 (579679a)
C           -3.04221643696313       -2.63353582859563       -0.54458962868881
O           -3.96298705057286       -1.59470361374988       -0.91146728963830
C           -3.78822388661841       -0.32176437132064       -0.81033232085278
O           -4.77367758801560        0.41584631942580       -1.18816340672845
C           -5.98505922224643       -0.18979156401117       -1.67480745056212
C           -2.60652221957068        0.34859570458800       -0.31272279344025
N           -1.53260516214952       -0.44389231891994        0.03063158961060
C           -0.44592838104676        0.09865339751757        0.46662806916774
C            0.73362247793408       -0.75117131103522        0.88003413073260
C            0.77876390741714       -0.82021066944315        2.41021740639721
C            0.64788792100498       -2.15021187818356        0.26598798971666
N            1.95073443867896       -0.08482371537002        0.42137533436686
C            2.07384415857725        0.29852468650557       -0.87354458011631
O            1.15024768814570        0.30313585310949       -1.67029859430472
C            3.43840752428566        0.75477423989354       -1.21215872932251
N            3.86772558371410        1.23548618594499       -2.33724512731141
N            5.19193575193472        1.50167488793688       -2.17094211523127
C            5.49225378493263        1.16611174839854       -0.95396121745372
C            6.80578942264013        1.25684386892042       -0.28125535386883
O            4.42613491173186        0.68669560468271       -0.29346667785744
N           -0.31603054636356        1.44583323412849        0.64768958162324
C           -1.29951129239270        2.34231168659387        0.34008005117012
O           -1.19703923353268        3.54566938370846        0.47990929875919
C           -2.52814080836300        1.72172294225786       -0.18484729501724
O           -3.49985075459594        2.55692563426491       -0.49118874057887
H           -2.13976432707549       -2.56102199478977       -1.15039807712848
H           -2.78926342540081       -2.55017078865741        0.51153984870887
H           -3.56813864047031       -3.56621166512682       -0.74431639697504
H           -6.64360731878295        0.63400339084744       -1.93936067133955
H           -5.76051689682030       -0.80744781387846       -2.54471545842139
H           -6.42293969572614       -0.80473831817689       -0.88831505591566
H            1.62833684565175       -1.42367171237853        2.72372261140735
H            0.87804135404236        0.17912848856078        2.82952048649326
H           -0.13660609028985       -1.27449892377426        2.78479056713329
H            1.54837925653109       -2.71055512769206        0.50874989972094
H            0.54806367082056       -2.07739802973058       -0.81629229805255
H           -0.21603129554159       -2.67371555805708        0.66993782279963
H            2.77416005895991       -0.16580130620681        0.99508307596618
H            7.11462479247809        0.26870170902523        0.05935421989382
H            6.72906197915328        1.90284869547557        0.59318868334576
H            7.54690517440620        1.65680358228657       -0.96951197639042
H            0.55261053822904        1.80994162704539        1.01576417316623
H           -3.22286996873697        3.47510063798223       -0.29000258498371
