21
 energy: -30.762854124576 gnorm: 0.000389618232 xtb: 6.5.1 (579679a)
C            2.55846979437726        0.42106856528832       -0.53017913728671
C            1.83137974176698       -0.14543178606589        0.72836228121145
F            2.82130670149680       -0.54023600746970        1.58637281848010
C            1.03816936747081        0.97299087600120        1.29076421337527
C           -0.28085625592185        1.08833937420225        1.00339427025789
C           -0.96917367801803        0.06263581715146        0.29789558898467
C           -2.39328814442065        0.25211354859059       -0.03347067240592
N           -2.98802263840419       -0.82555191790907       -0.77399359705042
C           -0.29002051263905       -1.14063139307739       -0.02283533822284
C            1.02567893344137       -1.29805807511699        0.26778500122573
H            1.83638897170417        0.75252603927174       -1.27049520192514
H            3.18044874657709        1.25586808162819       -0.21542154748376
H            3.18269359243893       -0.36747774434550       -0.94419018177855
H            1.57211216329919        1.72783412009737        1.85546448189562
H           -0.84321810185754        1.95098676847377        1.34181622039118
H           -2.95641330198110        0.41668169165336        0.89396506312356
H           -2.47330633095453        1.20039139517651       -0.59143159129721
H           -2.55502384600870       -0.93463014295008       -1.67829816166715
H           -3.97496693241823       -0.65602474441477       -0.89464428687575
H           -0.86669755277432       -1.95889782028218       -0.43841896228746
H            1.54434028282590       -2.23449764590330        0.09877673933564
