42
 energy: -82.937869851482 gnorm: 0.000542907602 xtb: 6.5.1 (579679a)
C           -6.23632624064070       -1.97064282982037        0.70927725035435
O           -5.04956714628834       -1.20974716585188        0.48029994293804
C           -5.09084166963445       -0.34357961451329       -0.54505463327699
O           -6.07231510720433       -0.20705412338218       -1.24109343752994
C           -3.81292759698951        0.39375156799307       -0.69796668779465
N           -2.83404161976686        0.06048861876963        0.17114672784331
C           -1.67628618957184        0.65017656740219        0.12891214686211
C           -0.61396359988770        0.28611632600608        1.13772569148201
C           -0.57456403046037        1.39295891071036        2.20478224220681
C           -0.91919313119595       -1.07699413074372        1.76529522438985
N            0.67051638357002        0.22757774831740        0.42811236869383
C            1.84959622884177        0.00332803802866        1.05029855286609
O            2.02110521657859       -0.10925022163222        2.24838680336360
C            2.95822299062354       -0.08632614540760        0.06128911438093
N            2.79916172910682        0.01578911293300       -1.27057401672379
N            3.94535599246897       -0.11762319548277       -1.83020963656725
C            4.94379658476806       -0.32661844493223       -0.81333130448046
C            5.96747738072760        0.81204466415028       -0.82422194447939
C            5.59669893334026       -1.70130052506196       -0.98197375962600
O            4.20131874748582       -0.29240552672294        0.40653087611409
N           -1.40200212774296        1.64223121017387       -0.76018914951774
C           -2.29578440171362        2.09437388805812       -1.71887141595226
O           -1.97277485488933        2.98340536652622       -2.48103320652761
C           -3.64458147738145        1.40208466321601       -1.71302863087733
O           -4.49393318400967        1.73043208020947       -2.53718166555956
H           -7.07867447984309       -1.30513899816203        0.91689922223906
H           -6.03832429031459       -2.60633855853732        1.57003347442904
H           -6.46844542880068       -2.58269136094254       -0.16641671403883
H            0.13827416076273        1.13767864154848        2.98575748955647
H           -0.28424826618925        2.33755778573269        1.74918827586210
H           -1.56424667877336        1.49840845566421        2.64668228793488
H           -1.89771014761893       -1.04106675389725        2.24208039725400
H           -0.92905583452100       -1.84602055566577        0.99456770865586
H           -0.16445499348877       -1.32039894586511        2.50999529878200
H            0.66125053837350        0.20632399777037       -0.58037329640852
H            6.49726589013241        0.80648178441879       -1.77329372443137
H            5.45201568442011        1.76154682398173       -0.69708011239344
H            6.67112384861688        0.66709088666400       -0.00795737328840
H            6.30620382896355       -1.86201340905189       -0.17390123269291
H            4.82818176198462       -2.47064369839474       -0.95165833098865
H            6.11241760257943       -1.73577389414038       -1.93823307821254
H           -0.50572400641799        2.10177995993344       -0.73701174483764
