29
 energy: -54.517209544692 gnorm: 0.000928982291 xtb: 6.5.1 (579679a)
C            4.60685726084581       -0.80315409935812        1.72170658081570
O            3.59594244713495       -0.54250473410429        0.74407977514892
C            2.34832895393261       -0.42526455294758        1.19786285736927
O            2.05955937838559       -0.53231460852591        2.36882706651282
C            1.34741426285186       -0.14907816250152        0.12531020052030
N            0.06094240729971       -0.02602161367004        0.59601525346715
C           -0.89957650901790        0.21940668795679       -0.22995309224676
C           -2.33307332825511        0.31816683259106        0.24568704855688
C           -2.39138857555354        1.06069205580568        1.58711310103566
C           -2.87747517563634       -1.10979478467595        0.39238052040286
N           -3.10130673312053        1.00858161811116       -0.78515725161285
N           -0.69495432478972        0.34493276449429       -1.57115047268274
C            0.53587483586279        0.24339297855266       -2.15767433286804
O            0.71914301693224        0.36224951528272       -3.36298767583429
C            1.61764352966554       -0.02123289989101       -1.21081189341327
O            2.84046908031438       -0.11913231879550       -1.75270505259199
H            4.65257285729030        0.01695486496659        2.44237089972415
H            5.54815622649465       -0.88458541682435        1.18232545710670
H            4.38923721966347       -1.73533286029946        2.24868424791737
H           -1.77462141394197        0.54515151957271        2.32335340374499
H           -2.02184651869578        2.07813635013372        1.46735838060188
H           -3.41928440114812        1.09895134061012        1.94186717008538
H           -2.86077522948818       -1.61462534429279       -0.57280607773289
H           -2.26722026180910       -1.67155550289296        1.09901889495582
H           -3.90295024520376       -1.07732751265097        0.75633786324648
H           -4.08693850302831        0.83305514430620       -0.65364032023280
H           -2.95571912113709        2.00652957399253       -0.71163762194950
H           -1.50455827012138        0.55200953509097       -2.14639769061227
H            2.76954513427249        0.02371362997133       -2.71452123943870
