33
 energy: -57.863285611142 gnorm: 0.000894521752 xtb: 6.5.1 (579679a)
C            4.28292562564815        1.08602196448377        0.82199861996865
O            2.92814762205455        0.68464284118922        0.53596101080504
C            2.77363487442416       -0.42145746033315       -0.15998628085660
O            3.70201996061955       -1.09616642595321       -0.55659275943529
C            1.36726377866706       -0.75756346825818       -0.53578818613181
C            1.17668432875595       -1.55477849420927       -1.63842908073293
O            2.14111013149429       -2.15823476110602       -2.29957382180550
C           -0.17415601096067       -1.74213487852647       -2.20234882976818
O           -0.46964817499347       -2.42273255264342       -3.15196968899157
N           -1.11863373480343       -0.99101567048925       -1.51872084776441
C           -0.95138375332541       -0.27937913667450       -0.40305209405728
C           -2.25061761614696        0.33962062641150        0.11904536363546
C           -2.09041035464768        1.78891823436360        0.59966758993436
C           -2.83683275104421       -0.57265972912868        1.20694615512439
N           -3.17587653224064        0.31312031836095       -1.01278372863191
N            0.25804621390158       -0.20345029704172        0.12739954996404
C            0.47632561796882        0.36915391946966        1.46087244788545
H            4.20851834791392        1.94894444189106        1.47970906488217
H            4.81306963128117        0.26727819007778        1.31215001339305
H            4.78665195385294        1.34925466015225       -0.10979459456158
H            3.02265605843922       -1.98916422870687       -1.87861370295655
H           -2.08672861477073       -0.96044087138499       -1.86768582124841
H           -3.07036785228145        2.26304558960567        0.57318566319979
H           -1.72139271812351        1.84510467372818        1.62061422193736
H           -1.41850686697724        2.33796995067222       -0.05723638377195
H           -3.76106164932147       -0.12920910906629        1.57325229817710
H           -2.15405902823181       -0.69291830912928        2.04464244603085
H           -3.05409394739989       -1.55290665479308        0.78532215070988
H           -4.12689817161445        0.27623976914609       -0.67345439519887
H           -3.07191983580845        1.15623195916834       -1.56045236698855
H           -0.43053129537972        0.27318396848150        2.04523469015996
H            1.26743415879423       -0.19001036189006        1.95233330698607
H            0.75863360425709        1.41549230213185        1.36814899010802
