16
 energy: -33.440451466622 gnorm: 0.000506201962 xtb: 6.5.1 (579679a)
C           -1.45242865743014       -1.59356248740842       -0.46757881653106
C           -0.34149154354014       -0.67663314850934       -0.17261578904180
O            0.91711760212046       -1.05590920610080       -0.17591169744122
C            1.64204359726759        0.03884096535309        0.12302843186487
C            3.13346046456508       -0.03852168091119        0.19687677640778
O            3.73064983847140       -1.04869043135549       -0.00316507840302
Cl           3.86094987112805        1.45149847924970        0.58766998199019
N            0.87286897900144        1.06989933888247        0.30816166799749
N           -0.37375580128181        0.61153586286352        0.11717932034884
C           -1.49918423470450        1.51275765892515        0.25881765969778
H           -2.29237658249516       -1.39964235121704        0.19780734228481
H           -1.11204600991599       -2.62264301250159       -0.36156999218137
H           -1.79030137415200       -1.43803592969491       -1.49521070919480
H           -2.32241915267060        1.14037067196691       -0.34434438296983
H           -1.18539941369081        2.49822144854205       -0.07819954855140
H           -1.78768758267288        1.55051382191598        1.30905583372269
