43
 energy: -83.827807305390 gnorm: 0.000560267810 xtb: 6.5.1 (579679a)
C           -4.29574291684912       -0.55105404326619        3.38337178100552
O           -4.04695330404317       -0.32353585162333        2.00934786303716
C           -2.73858800299534       -0.58150259094126        1.59930375290030
O           -1.90584303529554       -0.97226663817305        2.44835535805336
C           -2.52942152763480       -0.36014986501541        0.23616860526362
C           -3.49716425243771        0.13236773921187       -0.73705360119904
O           -4.83483133777423       -0.26322194101506       -0.62814831200387
C           -3.10533642165315        0.87516159261635       -1.80892677553466
O           -3.75133358017380        1.33655899701595       -2.78360864870596
N           -1.64312021669953        1.15484522193533       -1.79570711860641
C           -0.77860371894183        0.26764773354341       -1.27529657293770
C            0.61807988846699        0.20285721161954       -1.89507184457783
C            0.98681025460959        1.52300647846142       -2.59277061181984
C            0.62581579838976       -0.93441883389078       -2.92943270112338
N            1.58615896578961       -0.00573925471361       -0.81636970493018
C            2.91402240436263       -0.29684454448492       -1.06045927877351
O            3.35086469248712       -0.72763840437160       -2.12901646946905
C            3.75411301243602       -0.09626536529617        0.10983103803363
N            5.04605157105016       -0.31551144596803        0.21944167151251
N            5.39662460059232        0.04140663242238        1.48920245579825
C            4.32150118799967        0.45457065925971        2.08021056924561
C            4.19252904516796        0.95319380433627        3.46902283365845
O            3.23960791922228        0.39768009790807        1.27624533462633
N           -1.19636638500059       -0.49816386791570       -0.29055322770664
C           -0.38749383126814       -1.57323785403920        0.28828850416934
H           -5.35026837423473       -0.33366976965110        3.56065589994927
H           -4.08822826349452       -1.59221006266873        3.65913855410626
H           -3.68060089646560        0.10340903621320        4.01300939944301
H           -5.30707880541658        0.13378955286354       -1.37326067973959
H           -1.35667426435440        1.66683472293371       -2.61464279361023
H            0.84598536277465        2.36601394903420       -1.91885080020475
H            0.39375845067237        1.67270598433473       -3.49263374291701
H            2.03534870038555        1.47854686304110       -2.88374308571514
H           -0.26627731332463       -0.85068387973536       -3.54923369255439
H            0.63149798337445       -1.91023716969403       -2.44867384192274
H            1.50191092338706       -0.85772939260625       -3.56955406804488
H            1.43081548425934        0.58572756051851       -0.01162194230504
H            5.15809214662767        0.89964800113548        3.96546809715018
H            3.46723507100260        0.35403917041570        4.01886139718735
H            3.84379772691056        1.98576150121310        3.46615234225341
H            0.17627982609762       -1.19896048884462        1.14246710307581
H            0.29676306014580       -1.97595250405473       -0.45184010166799
H           -1.05373562815098       -2.36677974207884        0.62192605561347
