47
 energy: -79.547105564896 gnorm: 0.000508074067 xtb: 6.5.1 (579679a)
C           -3.13609650229906       -3.83401092784803        1.28966042189854
N           -2.14402862129677       -2.77014901577713        1.12996107744827
C           -0.91992116655115       -2.93195596739942        1.75049740313990
O           -0.63207775773662       -3.91498100683189        2.42377697289334
C            0.01723365221071       -1.83920441097892        1.54370689125449
O            1.21525032738343       -2.00163694238103        2.13678593994808
C           -0.32461461560179       -0.75307318513171        0.79234202919480
C            0.52931556068779        0.42823492249583        0.46759042028575
O            0.14760367237525        1.27100440719340       -0.35204128324859
N            1.69988649599542        0.51978286456056        1.10765527801818
C            2.63433558425215        1.60579125640283        0.85093055098155
C            3.91149852078398        1.10026959901948        0.21798913388823
C            5.09893238696259        1.80159916434744        0.41826934202275
C            6.28149294306949        1.37027465017416       -0.16581990649480
C            6.24970604086981        0.22862315605318       -0.94651325957668
F            7.39040340137558       -0.19860666457788       -1.51037313728973
C            5.08879863785322       -0.49003685555534       -1.16727310612440
C            3.91469759393093       -0.04196113080611       -0.57875366969029
N           -1.57050996452027       -0.69595497172812        0.21786999168494
C           -2.42053012629652       -1.65962597474948        0.38435795419019
C           -3.75640621327279       -1.54588114262243       -0.27308255082795
C           -2.86123900471757        2.15428923871346       -1.40825970267374
C           -4.00665477423577        2.76297948123651       -2.11648853852647
C           -2.60040454772156        2.47418726625466        0.01243069444398
N           -2.07820502473123        1.33120542503996       -2.00805940759267
H           -2.71538432097694       -4.59328614674511        1.94779479042335
H           -4.04339598718501       -3.42340702293272        1.72940622108575
H           -3.36292904362412       -4.27056755389890        0.31789472284160
H            1.21044053856530       -2.85367458243566        2.61631256961893
H            1.97105597871758       -0.17643382732853        1.78449106141923
H            2.85355995266950        2.11409779351838        1.79513709869478
H            2.14037986969716        2.31819230505649        0.18137335402605
H            5.10158099928273        2.69125451023127        1.03718972692040
H            7.20990422166209        1.90632710199624       -0.01623710477690
H            5.10252858297845       -1.37883027712290       -1.78466345760688
H            2.99473191553682       -0.59213058430238       -0.73545698862552
H           -3.93036796185078       -2.38553876863096       -0.94590086376666
H           -4.55435110269143       -1.53230472078009        0.46970667216194
H           -3.78568819823627       -0.62069279153652       -0.84397742791514
H           -3.94386003101965        3.84976054225766       -2.04205407024669
H           -4.93019377621130        2.46216664097380       -1.61872643763340
H           -4.04553902724442        2.46585859230071       -3.16212143120058
H           -3.41935208810556        3.03347436661440        0.45736636269540
H           -1.67988904128685        3.05867860475227        0.07919600262841
H           -2.42384160909577        1.54801982092507        0.56267968125815
H           -1.28550129715932        0.93041865719093       -1.48824483722311
H           -2.19235307315707        1.07745010479458       -2.97388318410867
