16
 energy: -34.296187726238 gnorm: 0.000936462100 xtb: 6.5.1 (579679a)
C           -3.58332397016333       -0.48494509613472        0.15272036957000
O           -2.21336390494097       -0.46595357390227        0.57052957901537
C           -1.33144303118708       -0.01402978306082       -0.31326462128025
O           -1.60674972309943        0.37418599158659       -1.42113940147559
C            0.04221928151827       -0.04810092222372        0.24508452821238
N            0.41826325662397       -0.44153180375407        1.42583800247245
N            1.76596953156000       -0.28965963283083        1.47834251849722
C            2.13455269399661        0.18774217315017        0.32598980653067
C            3.50531146344957        0.51566439305611       -0.12094933634555
O            1.09172769734615        0.36236844233973       -0.49485870552335
H           -4.15430708027123       -0.89412806959885        0.98321211279011
H           -3.69371033637045       -1.11314084230846       -0.73370319643234
H           -3.91644961878015        0.52932628162473       -0.07746168603804
H            4.18103896120864        0.51282031368333        0.73082177638258
H            3.84353070735367       -0.22319154226034       -0.84854075018951
H            3.51673307175584        1.49257267063344       -0.60173999618606
