42
 energy: -82.953742927498 gnorm: 0.000599046327 xtb: 6.5.1 (579679a)
C            4.62362275174442        3.07870319426752       -1.35246849865274
O            4.26527397788177        1.75002540098068       -0.97687487035525
C            3.06393707771801        1.60167640718768       -0.40641026617366
O            2.30828123585429        2.54011529802708       -0.23109713622110
C            2.74512902597164        0.21335273871835       -0.00861206582543
N            1.55535733322827        0.10445069744574        0.62854548039331
C            1.11950869764310       -1.04684759542070        1.04725128145137
C           -0.20018698665442       -1.06208889157181        1.78436205467283
C           -0.10274379323439       -0.10480395201280        2.97651423629447
C           -0.65869787997789       -2.45162127196104        2.22128741495615
N           -1.22730686155568       -0.50281150041777        0.87662631757256
C           -1.28424372061667       -0.91068326916041       -0.38362314159451
O           -0.46656444604222       -1.60163015646564       -0.94530890342305
C           -2.54051734337801       -0.38501130217518       -1.18803204427865
C           -3.32491670515267       -1.60356882167513       -1.66900107508956
N           -2.04392080330608        0.43689287401536       -2.23498958566315
N           -2.47427280002624        1.64673159780834       -2.05252516319060
C           -3.24446919346135        1.66088365084400       -0.96818863969539
C           -3.92646157184529        2.83404851303397       -0.40421287367558
O           -3.33403869315751        0.47516462092191       -0.40031596327937
N            1.85327421481810       -2.18497757679934        0.90737458974439
C            3.07504380557259       -2.23940920839671        0.26504013720426
O            3.66319832014447       -3.30171665757942        0.16367725994654
C            3.59090934146887       -0.91777459826165       -0.26603677244639
O            4.66796813317501       -0.88983913766601       -0.86427960483644
H            3.90289501173821        3.47869431849258       -2.07022444894665
H            4.64699498775480        3.72652504709017       -0.47251734620530
H            5.61254803982835        3.02331766187454       -1.80372039534749
H            0.62695050075805       -0.48357290940916        3.68995749146440
H            0.21140268103824        0.87962619099989        2.63063571942177
H           -1.06925583497412       -0.02392359937705        3.46865448400638
H            0.03663188719130       -2.86789353695733        2.94775005101521
H           -0.73358386038292       -3.11703934191195        1.36251698611312
H           -1.63952231342525       -2.37429457585443        2.68578728442150
H           -2.01981831936249       -0.05564160804721        1.30385739081318
H           -2.66128695553458       -2.23879707517949       -2.25188619674677
H           -3.69981434272523       -2.15083884113580       -0.80791032224278
H           -4.16037046007509       -1.27193423266673       -2.28080130632744
H           -4.16719404724431        3.54209359280342       -1.19484056695116
H           -4.82539502516053        2.52543548206333        0.12510136318300
H           -3.26566787870732        3.33040826814178        0.31022763832455
H            1.50132481246138       -3.06142589458670        1.25518500616576
