42
 energy: -83.613737160767 gnorm: 0.000809279644 xtb: 6.5.1 (579679a)
C           -3.16263923297284        2.50677435799189        0.21702795724906
O           -2.71029944251575        1.16299899618235        0.10912068690657
C           -3.68482219812903        0.22311582178231        0.02676731263027
O           -4.86740558845352        0.53391253122330        0.03704540753675
C           -3.16477142820014       -1.18461156418330       -0.20567154802833
C           -4.19099925649372       -2.19993950664894        0.30899720601050
N           -1.89343177472805       -1.40521623658646        0.46542540646300
C           -0.81727684588897       -1.08537898089721       -0.15667617131357
C            0.52198739223589       -1.29175679011618        0.54248647704193
C            1.00089779758884       -2.70914479152849        0.18799618932007
C            0.34416954125165       -1.14531969971953        2.06059337869339
N            1.45676226704478       -0.29293501018942        0.02396256378392
C            2.76472928399922       -0.20403690637671        0.52468585324841
O            3.33921531455994       -1.14077527420139        1.11721516659259
C            3.35327621837492        1.05948075752706        0.20910649882486
N            2.75131944470348        2.07685945910618       -0.41549271494158
N            3.67521069881771        3.08216164608150       -0.49777385363098
C            4.76047368802202        2.65524916502191        0.05978898734384
C            6.03959753155725        3.39321808380771        0.20785672564841
O            4.65297270273680        1.39162274213464        0.53546479006786
N           -0.78760196829354       -0.62332651942378       -1.43322680232420
C           -1.87036016702161       -0.84594280069119       -2.35039285488389
O           -1.58707535334251       -0.75229163893351       -3.58122164665517
C           -3.09964946970540       -1.21409008541120       -1.76158141592740
O           -4.15399742191925       -1.55297316831924       -2.40003452421305
H           -3.74497000202623        2.64200279237179        1.13336209714892
H           -3.78813800767609        2.77827507102463       -0.63928620522820
H           -2.28009704251236        3.14383983669486        0.24750933544786
H           -5.15889156623945       -2.01730721826460       -0.15760051940842
H           -3.86393122345222       -3.20964835646963        0.06335296351593
H           -4.29321179342326       -2.11711864198030        1.39055853099283
H            1.19493918166703       -2.77920934822250       -0.88220046024731
H            1.91162501152501       -2.95896353116918        0.72863423136201
H            0.22606592184801       -3.42760022739530        0.45519973126429
H            1.27812792199970       -1.36254135126971        2.57637542129779
H           -0.42347080189895       -1.83861140989189        2.40359542888392
H            0.02994704642448       -0.13034170635962        2.30329339791761
H            1.03763435166968        0.62254574692027       -0.11234790337424
H            6.32910395185191        3.44610708023269        1.25772509923915
H            5.92419479137502        4.40104065667940       -0.18426797538000
H            6.83705333450832        2.88647415258417       -0.33619335121238
H            0.11373419113334       -0.51659913311199       -1.87509689767067
