21
 energy: -30.734627178767 gnorm: 0.000544816974 xtb: 6.5.1 (579679a)
C            3.91961723390383       -0.34886450988544       -0.09408685840953
F            2.75351642242732       -0.13310297680028       -0.90969819098899
C            1.34467820742830       -0.11102240717652       -0.48389701701096
C            0.73134161457042        1.11488145804120       -0.50683403681471
C           -0.61109878599218        1.12471979428138       -0.14934894633522
C           -1.26622117133549       -0.05277354901567        0.21142684741181
C           -2.71785715442675       -0.01569169330306        0.61539884246395
N           -3.38488722918448        1.15189396758666        0.04995144761915
C           -0.56741018229208       -1.26073724636131        0.21768629132005
C            0.77551614823043       -1.30903742987239       -0.13813934595658
H            3.80050806070256        0.28757885438274        0.77740271943099
H            4.74194469344961       -0.04878761221479       -0.73663880620186
H            3.92734904375703       -1.40783765029871        0.14634030673967
H            1.26090440733410        2.01344558807169       -0.78998268847396
H           -1.16110853775556        2.05898555508322       -0.15197951088738
H           -2.76684915290815        0.05625975553378        1.70753506451574
H           -3.21102774616903       -0.95167614321755        0.31873175380324
H           -4.28331897407024        1.25748366394888        0.50002072148600
H           -3.55050514712956        0.98813426155441       -0.93390741269489
H           -1.06843019341126       -2.17968223155070        0.49656333771135
H            1.33333944287063       -2.23416844879308       -0.14654551872969
