47
 energy: -79.518724716917 gnorm: 0.000633062945 xtb: 6.5.1 (579679a)
C           -3.24239111849841        1.20434711874978        2.50696322094032
N           -2.18248256969440        0.51102801119297        1.76489753119574
C           -2.27465085534262        0.12832836673991        0.44864960243745
C           -3.51682997253291        0.38890540394300       -0.39456472217175
C           -3.39056721597317       -0.36554145057923       -1.72843585911824
C           -3.64207115408226        1.89412108995683       -0.67166421279655
N           -4.70317539503617       -0.07177903023562        0.32081611561077
N           -1.28724457287903       -0.44869641122245       -0.16310204404868
C           -0.10757526652296       -0.72978211584993        0.47248234290296
C            0.87445693582916       -1.37124232275218       -0.38880580500353
O            0.75780693917881       -1.65184361739605       -1.54074141197727
N            2.18607461005594       -1.73836012747338        0.28790393500253
C            2.03695039514738       -3.11031081871796        0.83665692880896
C            3.32912504336035       -1.64711780051735       -0.67623439403968
C            3.51827506996238       -0.21573898340629       -1.10430916247804
C            3.15033325088772        0.19052495452156       -2.38457107285968
C            3.33245001739924        1.50727616603602       -2.78100325930825
C            3.87805276228867        2.39791596735412       -1.87296566969605
F            4.05507331105293        3.66903527163134       -2.24851602957689
C            4.24674587318032        2.02692984442921       -0.59134405399330
C            4.06350659418719        0.70588349423443       -0.21139877384261
C            0.04200585773045       -0.38929537731986        1.79142524060112
O            1.14181368550954       -0.62174396880069        2.51045345084887
C           -1.03865374464905        0.28877370073334        2.49777193702257
O           -0.90841446405409        0.62936156233362        3.66584415312371
H           -4.20803053178593        0.98442299480369        2.05999102375386
H           -3.21659958117315        0.85069686923516        3.53741412535936
H           -3.04434559547720        2.27609991138530        2.49048299868595
H           -2.54344621715188        0.00987590447654       -2.30076846348612
H           -4.30245772998388       -0.22576494198777       -2.30649789299948
H           -3.24635314581942       -1.42902502148887       -1.54545038764917
H           -3.81993253405860        2.44830533751571        0.24726249362258
H           -4.47871316148977        2.06663417694301       -1.34734133169757
H           -2.73003479115513        2.26503385958623       -1.13769678586758
H           -5.52457713222054        0.17103617689241       -0.21651352098546
H           -4.67400370681897       -1.07825980586655        0.40987864740195
H            2.36270965964050       -1.10720484313133        1.07415198517591
H            1.82013548754185       -3.79310908007798        0.01897487368820
H            1.22468583125239       -3.09792795813212        1.55847219588775
H            2.97004653800441       -3.37782740545763        1.32494176086256
H            4.20359582882604       -2.02433388045419       -0.14494569401482
H            3.09672642249352       -2.30112468605095       -1.51783477203732
H            2.71689865688583       -0.52578634199334       -3.07205162618074
H            3.05458539521243        1.83825361194123       -3.77352938065393
H            4.66691130282725        2.75380529867555        0.09132352300304
H            4.34548785750915        0.38820652143230        0.78494355915490
H            1.00809813043872       -0.27298462581876        3.41858168139121
