42
 energy: -82.998220576861 gnorm: 0.000946739418 xtb: 6.5.1 (579679a)
C           -4.99211229990227        2.72782596031494       -0.58689319109975
O           -4.09799926632542        2.00234474480026        0.27407919216546
C           -3.34060816483632        1.07586717225500       -0.31909093398212
O           -3.42215889041972        0.83438010161403       -1.50095837489550
C           -2.45346638026330        0.36413960896615        0.64479584136455
C           -2.77069526754018        0.19486971064447        1.96518543244368
O           -3.82652734961226        0.72905626743144        2.58367238765419
C           -1.94492701690035       -0.67990656808999        2.82927172321773
O           -2.17303073852000       -0.83471739158328        4.01872975562964
N           -0.91324490158027       -1.31964812936829        2.18999287570107
C           -0.60780031310500       -1.10768633680821        0.94431138113448
C            0.57730309297822       -1.93226687588685        0.43324845762498
C            1.15463258922617       -2.76781247544357        1.58591355302431
C            0.11914158744171       -2.86925438820930       -0.69373985112274
N            1.62461316849488       -1.00423601226805       -0.01658594833156
C            2.76032136703453       -1.41244359804700       -0.62891925542115
O            2.99797326542338       -2.54717616692864       -1.00284355850242
C            3.71893827192557       -0.29798747349701       -0.83484893086785
N            4.90687710101258       -0.35925892701542       -1.35084507535510
N            5.41321723968519        0.90545649418296       -1.32482632180373
C            4.50363351454728        1.66189291685755       -0.79425482212652
C            4.56445707242630        3.11926536038713       -0.55010285580000
O            3.40645864395143        0.96196549207098       -0.45916852584108
N           -1.30952845829085       -0.26935403583510        0.14494455343563
C           -0.87332684138109        0.08360695373134       -1.20918926662382
H           -5.74217604541289        2.04936940854046       -0.99733327037358
H           -5.46103640900655        3.49120805377270        0.02866722349118
H           -4.42620678080929        3.18435248889718       -1.40071029179034
H           -4.33504887413438        1.33702052660493        2.02197326187264
H            2.01068803366508       -3.33532434350526        1.22485434991331
H            1.47248316316401       -2.11713655573939        2.39875942185060
H            0.39943903432210       -3.45749550275707        1.95857556467717
H           -0.81342031412654       -3.34884077896417       -0.39884114464536
H           -0.04000171223069       -2.33132968265619       -1.62397767143189
H            0.86863636652453       -3.63927635469528       -0.86741158503999
H            1.62054613331911       -0.08128414357949        0.38580588768136
H            4.42613441333007        3.32596558885394        0.51149655281963
H            3.76486784273475        3.62048597128331       -1.09623398911365
H            5.52746956662810        3.50547310131989       -0.87641137487666
H           -1.01661793183598        1.15115478665702       -1.35747746148490
H            0.18006462506225       -0.14397992973518       -1.32700538896751
H           -1.45796213666742       -0.46928203857328       -1.94330432620673
