46
 energy: -86.364137774147 gnorm: 0.000906709956 xtb: 6.5.1 (579679a)
C            6.24727122940949        2.06669069690899        2.25619378415773
O            5.32417062292437        1.75897465841997        1.20629305929521
C            4.33076751005122        0.92915977259100        1.51215678059981
O            4.18865771175642        0.43657185968807        2.60801973786831
C            3.40864527906248        0.66781117682197        0.36715296266971
N            2.40201293552227       -0.21296241907921        0.65764393414968
C            1.50337740622056       -0.53583354301213       -0.21145936558418
C            0.46494268854485       -1.54962806949036        0.25029791325323
C            0.65382346651739       -2.87767108076260       -0.49486182731574
C            0.60456896010965       -1.77357002723310        1.76188770623944
N           -0.87234711982112       -0.97569354633788       -0.00076768689698
C           -2.01232429533525       -1.65450063679584        0.19014289692399
O           -2.13539084999015       -2.81547605895908        0.51527905703993
C           -3.22692117013405       -0.80733553834500       -0.07929538648990
N           -4.46964150934270       -1.16812875609451        0.01367766928231
N           -5.17537720433426       -0.08139891404181       -0.34819130251694
C           -6.62494661852251       -0.12187536249701       -0.35444853619111
C           -4.36048676887069        0.90765943446730       -0.64886811465796
C           -4.68036906355880        2.26799905406237       -1.10842062068752
O           -3.12509407834316        0.47469519483056       -0.48721926496796
N            1.51351692097954       -0.02633359734699       -1.48665674461460
C            0.55181333139165       -0.33503924299131       -2.54601847847603
C            2.49556103341408        0.86220340175519       -1.88908099046703
O            2.52991271791737        1.32138529331368       -3.02500366858783
C            3.48377907113128        1.22000677886242       -0.88092488598872
O            4.41577797734616        2.08989456520492       -1.27955713264821
H            6.98117505694252        2.75050487957306        1.83386505347287
H            6.73463113533280        1.15361616284259        2.60689132511127
H            5.72199555450135        2.53966200799179        3.08943769620427
H            0.03358152716262       -3.65165920345166       -0.04730853236201
H            1.69860098519173       -3.17662959055421       -0.41856108349632
H            0.39036033794320       -2.78449683871895       -1.54473338016923
H            1.59041857820195       -2.18023535178035        1.98161340377087
H           -0.15686253668430       -2.47435491681486        2.09875388142278
H            0.48495008284406       -0.82964600349677        2.29040278124428
H           -0.92859067085539        0.01771833534528       -0.14635510450284
H           -6.98495249743887        0.35388072603106       -1.26357398525009
H           -6.93104441587482       -1.16453696484311       -0.31703146310435
H           -6.99737030698365        0.41363137194913        0.51841836253247
H           -4.85727692967959        2.25380556761617       -2.18678022117764
H           -3.84143285175058        2.93063242365272       -0.90322340930027
H           -5.58198433299530        2.63184996607590       -0.61818946937641
H            0.25458060131424        0.60576938526934       -3.00894512179720
H           -0.32007718147411       -0.83559612858897       -2.14625840331270
H            1.03949277658995       -0.96102296661182       -3.29396193668856
H            4.23410490368823        2.33950204454627       -2.20518688860878
