16
 energy: -34.171480172928 gnorm: 0.000749591986 xtb: 6.5.1 (579679a)
C           -1.52614883626960       -0.80374388499051        0.89550450133171
C           -0.63427040508135        0.04308774448363       -0.02145141116040
C           -1.33717358279175        1.33820192503461       -0.44807444023331
N           -0.28087015942868       -0.73945836533508       -1.21951783657984
N            0.98825483122987       -0.87342592300404       -1.25404027284684
C            1.56860220897033       -0.26647840759943       -0.20289899387307
C            2.91042810006074       -0.19557313102478        0.10285061178154
O            3.51865338145421        0.32305285839313        1.02370657542253
Cl           3.91650613317504       -1.07696517150836       -1.17666128879191
O            0.59846586332508        0.33367027641710        0.61637539768709
H           -1.76854788473463       -0.24714923417641        1.79863941222955
H           -0.99910280023840       -1.71616791794280        1.16978592777126
H           -2.44508096860311       -1.06485704214785        0.37526996005893
H           -1.59008076783328        1.93294725844010        0.42746624368088
H           -0.67387788608241        1.91460927150885       -1.09099936509211
H           -2.24575522715206        1.09824874345179       -0.99595602138603
