47
 energy: -80.201554427378 gnorm: 0.000226739591 xtb: 6.5.1 (579679a)
C           -4.40358914835646       -1.66766849653298       -0.29244989023416
N           -3.04171934460284       -1.14252850851003       -0.22943942248756
C           -2.74019455291493        0.19802119698521       -0.24478663740449
C           -3.82588198879612        1.27201565258343       -0.26406621427411
C           -4.34816710360585        1.47121022025653        1.16672542300218
C           -3.21779498372024        2.59280932532766       -0.76617980026006
N           -4.93803051545472        0.88501145159335       -1.13095104950170
N           -1.51992473333609        0.62456356214479       -0.18336907126224
C           -0.45039151688878       -0.22054268200322       -0.11643345283135
C            0.97697018440796        0.47518347161923       -0.00621682759577
C            1.55550584698011       -0.03543202354230        1.37415203008676
O            0.95396698077679        1.76737421747073       -0.10950828202551
N            1.76379029833498       -0.21351053278718       -1.14253072254847
C            3.02398729066199        0.46266146220081       -1.43397827651137
C            4.15136677048116        0.06767699594021       -0.50005973016352
C            4.56046201692301       -1.26454051348472       -0.42678279165460
C            5.58452088062940       -1.65314422500624        0.42502330728800
C            6.19425490872792       -0.68327047833882        1.19936377893213
F            7.19393009603596       -1.05078466528367        2.02832228201409
C            5.82598004920277        0.64798224318517        1.15126536580805
C            4.79646373407713        1.01516887668970        0.29358758346204
C           -0.69322812525807       -1.56454703277425       -0.11123068767560
O            0.29313401525668       -2.51183357092805       -0.04090207930095
C           -2.02936690089807       -2.09131601048947       -0.17811402843504
O           -2.27048305175469       -3.30796516849741       -0.18265298461124
H           -4.38194553313325       -2.71039398674536        0.02597179456258
H           -4.78067209556212       -1.60844732314090       -1.31301802547846
H           -5.06121243071414       -1.10387827634309        0.36219955635934
H           -4.82203763535467        0.56620830196514        1.54295879894250
H           -5.08208608021907        2.27567447090311        1.18181453551407
H           -3.52403733688934        1.73555183158848        1.82915901754975
H           -2.41683674127385        2.92004391532496       -0.10275493822778
H           -3.99124892115689        3.35777866717631       -0.79800186113906
H           -2.81072454474243        2.46117271734785       -1.76826624885554
H           -4.68504229217580        1.02279507536780       -2.10094703321616
H           -5.73180432353276        1.47827655860115       -0.94045880977785
H            0.84997287279941        0.23110768488577        2.16096297355103
H            1.72354680617237       -1.10992404588902        1.38718305451741
H            2.49503475219963        0.47985323847098        1.56302052805056
H            1.95901496787543       -1.17312823495588       -0.86313640738262
H            2.85893779067307        1.54774516112838       -1.39152958365160
H            3.32017231804512        0.20544925168596       -2.46045272826639
H            4.07747794936950       -2.01258076207616       -1.04592896581836
H            5.90823427804085       -2.68389468785941        0.48606701549685
H            6.33464396591098        1.37697256285407        1.76878047152493
H            4.49696270862324        2.05687573109389        0.24333236438131
H           -0.13191258186727       -3.38585661919716       -0.04574133045464
