42
 energy: -82.971558987982 gnorm: 0.000720077898 xtb: 6.5.1 (579679a)
C            6.37224114349390       -1.23990846751561        2.30047249500981
O            5.24972225462598       -0.37913463218094        2.15057752420577
C            4.32728434329866       -0.76480035234682        1.23983505447158
O            4.46873464298027       -1.79885722992132        0.60027407531147
C            3.19287743906178        0.14236389984397        1.10023749214083
N            2.29187362535148       -0.28007362419409        0.14517937781025
C            1.23857639123014        0.39896774889433       -0.11063325781365
C            0.28578749977247       -0.05747286842761       -1.19431393640246
C            0.32033740843966        0.92907886097151       -2.36829795011782
C            0.64920312955269       -1.47664939454215       -1.63335016782464
N           -1.07815220514537       -0.05220219841393       -0.60346505666150
C           -2.19022595742487       -0.38037551573963       -1.21035889240303
O           -2.14790076098031       -0.79507696607240       -2.44397533255872
C           -3.31822802642231       -1.18604288451695       -3.17744330332459
C           -3.41942084401717       -0.25956069855332       -0.46369987124450
N           -4.64488613588627       -0.53937197252366       -0.81822956552251
N           -5.43419869512660       -0.24361522437518        0.23190484064583
C           -4.65784294549095        0.20472324389300        1.18078267076711
C           -5.04856079690238        0.66302910508053        2.52727320293193
O           -3.37441370719514        0.21486249204230        0.79944771624432
N            0.94879540593533        1.58229640963658        0.54226120051966
C            1.75209985344753        2.11832813891204        1.52493797195078
O            1.42614903274620        3.16659558977544        2.06747927185432
C            3.00975390474848        1.33718554146065        1.84814091546098
O            3.77314602934023        1.78283297023047        2.71889752892377
H            7.00709137201310       -0.80500082441924        3.07159844071658
H            6.92783997882136       -1.31552264773176        1.36057105601104
H            6.05272494383722       -2.24189314299294        2.60314900631919
H           -0.31895164489805        0.59034410765390       -3.17925599185103
H           -0.01405196608012        1.91129519430268       -2.04096727223722
H            1.34372545271254        1.00451200476342       -2.73384337709016
H            0.52869069360504       -2.16536685250686       -0.79877512181862
H            0.02596332733467       -1.80010551525789       -2.46187259486804
H            1.69282918791973       -1.48445813690836       -1.94654522807479
H           -1.16765382927401        0.25668504966058        0.35679481705089
H           -4.00521456520286       -0.34287125235662       -3.26139433168436
H           -3.81421476941276       -2.01762580301462       -2.67471630050760
H           -2.95774749703875       -1.48861737378310       -4.15870141679855
H           -4.57300568233727        0.03734197016507        3.28325298638816
H           -4.71045274886267        1.68804048229957        2.68068718187180
H           -6.12923691009802        0.61074220857329        2.63414754134989
H            0.11891362752959        2.09884756013359        0.31193760084537
