21
 energy: -31.512588448507 gnorm: 0.000325257512 xtb: 6.5.1 (579679a)
C            3.10998673881181        0.07576221458315        0.13802101244439
C            1.62104807165528        0.01625817583806        0.30689951279088
F            3.63460156766408        1.36994523861370       -2.58274192651554
C            0.91633787435872       -1.16280656048152        0.06748957858436
C           -0.46481014445489       -1.20380936330428        0.19352717667137
C           -1.17893186665872       -0.06508048630237        0.55907166885807
C           -2.68477467024925       -0.10562912561973        0.66058574456481
N           -3.28489047422140       -0.10661868420367       -0.68274517472350
C           -0.47710248405196        1.11243894197967        0.80517878482179
C            0.90429139115479        1.15172307155600        0.68433106916319
H            3.56390368200305        0.69637463842559        0.91145316516755
H            3.35143686776887        0.52082238041280       -0.84094723555125
H            3.54928917479537       -0.92092201469993        0.18095750321196
H            1.45118268119098       -2.06475679537195       -0.21311877148666
H           -0.99274743518734       -2.13358797931287        0.01171211531754
H           -3.04948695304326        0.78005494168246        1.19070340483086
H           -3.00192666105322       -0.99731833671894        1.22223098139414
H           -4.28609688394022       -0.04557095829675       -0.56934719147230
H           -3.09713037240945       -1.00225592287326       -1.11758951911763
H           -1.01455454916720        2.00655428327017        1.10492014228372
H            1.43037344501044        2.07842034077299        0.89265695877700
