16
 energy: -33.419017243801 gnorm: 0.000480076241 xtb: 6.5.1 (579679a)
C           -3.30322683054178        0.57967175954969       -0.40576463704693
O           -1.88735556674043        0.37922174645390       -0.29244307604817
C           -1.33919323612932       -0.75947538182382       -0.10573599141925
Cl          -2.22369584171219       -2.15976097221761        0.03432770298156
C            0.07970272846816       -0.79508259236638       -0.01808748822733
N            0.84808386876431       -1.84810029662818        0.18258684417102
N            2.10063113962113       -1.42068401361305        0.19886051634181
C            2.07146985059024       -0.11309071454837        0.00555774838385
C            3.21816978933809        0.80457899856582       -0.07382107850677
O            0.82884349322590        0.32260673304943       -0.13453941515387
H           -3.43888816699249        1.65311857655520       -0.51744496732966
H           -3.67329083257163        0.04316837554255       -1.28012422800577
H           -3.79588894005853        0.21028109825569        0.49410759575853
H            2.94022255881572        1.78396652140246        0.31109579413490
H            3.51264054173987        0.92242534087033       -1.11932610872551
H            4.06177544418304        0.39715582095212        0.47993978869157
