42
 energy: -82.954714228496 gnorm: 0.000226204135 xtb: 6.5.1 (579679a)
C           -5.88161067076811        0.69020636621477       -1.12492529025075
O           -4.96560199319645        0.33831164257755       -0.06974502891179
C           -3.69832335002908        0.26311169145969       -0.37534855903006
O           -3.19985964730519        0.47060020208856       -1.43948405010162
C           -2.84705915121498       -0.15939155432723        0.90842695489255
C           -3.69771584381776       -1.04260632194415        1.82510092788122
N           -1.72619496407645       -0.86690298628751        0.39383804896610
C           -0.60719830555079       -0.23849573428875        0.20452747344210
C            0.48908959431226       -1.03290380640211       -0.48890186558372
C            0.54610930852196       -2.45925997545690        0.06883922812929
C            0.16776801282686       -1.04145148277501       -1.99254935662389
N            1.75681449264334       -0.34979324212212       -0.25098798505397
C            2.94057598592559       -0.76880363846631       -0.72507008252761
O            3.12373128666813       -1.75760895717712       -1.41750966731587
C            4.03986467767636        0.13463379511200       -0.28616570425784
N            3.91247394685107        1.20584608367104        0.43711621465911
N            5.16612123108400        1.71242935351239        0.61424986642744
C            5.97785388809657        0.91616878362951       -0.01166316653845
C            7.44964845552004        1.02758403205409       -0.11591809560093
O            5.32774660862084       -0.09834396003833       -0.60126464442761
N           -0.30374874927703        1.04543244114252        0.51101714572278
C           -1.19958826115303        1.79998228727026        1.14926283146300
O           -1.06599896451120        2.95615466897613        1.55888525070486
C           -2.51591100934644        1.16042509142322        1.43448215438909
O           -3.35500675628373        1.88034099566042        2.08816190106752
H           -5.60182058501712        1.65701840173917       -1.54558324658297
H           -5.85526780603397       -0.07497201127318       -1.90184181622004
H           -6.86508912940195        0.73805627359616       -0.66455130826287
H           -3.07230030333119       -1.40019484243957        2.64037666633103
H           -4.52916081455859       -0.47084607426654        2.22948205602537
H           -4.07510368999264       -1.89391174403100        1.26402653620084
H           -0.43656888182413       -2.91834108920051       -0.02271224498759
H            0.82904044068641       -2.43623507229260        1.12019380871770
H            1.27112888022142       -3.05367078024624       -0.48417858940878
H           -0.82523514779576       -1.46297044986056       -2.14128002242997
H            0.89855774374818       -1.64263122295752       -2.53079162052600
H            0.18301337378273       -0.02394789020791       -2.38095931069810
H            1.71281725877369        0.50737920805886        0.29053484272526
H            7.74506485430126        1.11068557027203       -1.16157538603384
H            7.78875008291159        1.90492579855363        0.42934286347304
H            7.92121315122761        0.13619921099146        0.29735613258421
H           -2.92301624990021        2.75975593806576        2.26778213757642
