42
 energy: -82.979768826674 gnorm: 0.000429711369 xtb: 6.5.1 (579679a)
C            6.54396271683490        2.42197544482711        0.19410638621623
O            5.51517315430943        1.62333623786056        0.76323059440832
C            4.54800293703953        1.20731221757079       -0.09045744347897
O            4.58259357600912        1.51952846338174       -1.27476424481670
C            3.51420505098720        0.38171715227655        0.51917124801815
N            2.56594675283725       -0.04574050919793       -0.39073523550819
C            1.59643787318399       -0.79907608382865       -0.02627806702578
C            0.58217169034502       -1.26882594342588       -1.05484682507668
C            0.94406262950347       -0.68702830229868       -2.42202580978099
C            0.52143896986120       -2.79766895716170       -1.13374478194176
N           -0.75627167498232       -0.72217593766059       -0.71515013079240
C           -1.56520519688498       -1.17890956543342        0.23999452064675
O           -1.35092531117455       -2.06977295408777        1.04120552235142
C           -2.88072936851687       -0.44928731216926        0.28423448725829
N           -3.83449838181036       -0.62586417045544        1.14823101013554
N           -4.79995343021131        0.23590298529165        0.77969257042264
C           -6.04403046080500        0.29278524596776        1.51759097090806
C           -4.42470860173299        0.90700409608488       -0.28806388273017
C           -5.15693705121179        1.93939926211851       -1.03878229958149
O           -3.21596673892108        0.49646135945834       -0.61815418584357
N            1.45251903819919       -1.21794156303776        1.27908194373244
C            2.29245428807459       -0.83959512506820        2.29489791629827
O            2.07555982655919       -1.22455513312553        3.44128705326466
C            3.45662970735833        0.04200989692230        1.89699969485920
O            4.25669297200180        0.40164238625873        2.77858835015789
H            6.12588239276210        3.32634060563846       -0.25887689951851
H            7.08762207138894        1.86260701909879       -0.57401543474192
H            7.22225355917500        2.69326499213512        1.00264042116944
H            0.21417848283090       -0.99832726655063       -3.16616566462872
H            1.93083432101951       -1.04139438645122       -2.71773837665866
H            0.96839620151630        0.40075843046781       -2.37383778425223
H            1.47063787664694       -3.16880323717391       -1.51861018035528
H            0.34240291120465       -3.24268002163212       -0.15761661812136
H           -0.27666204033425       -3.09943661499713       -1.80936312997958
H           -1.09827949333683        0.01501277937956       -1.30747942482352
H           -5.85883793068113       -0.07894309603581        2.52278039696945
H           -6.38933313005252        1.32318699343409        1.54231433861886
H           -6.78022870757763       -0.33307296050691        1.01424674458241
H           -4.55749589950593        2.26963914729738       -1.88449156791928
H           -5.37659145501908        2.78800524159725       -0.38870871657692
H           -6.10650804324393        1.53643203722653       -1.39325346489609
H            0.66310391634786       -1.79522185398463        1.53025499902972
