46
 energy: -86.313026342099 gnorm: 0.000646129723 xtb: 6.5.1 (579679a)
C            6.77731637962644        1.56745159735376       -0.86636379897348
C            5.43613077634368        1.83026777701034       -0.30263840036533
N            5.00513844915966        2.91893666101428        0.25636505706903
N            3.71095354113382        2.69317110564587        0.61191109000338
C            3.42961513852508        1.48007199279732        0.24988587652809
C            2.15193911010397        0.75406513920628        0.41206590476674
O            1.15083692433783        1.26797196540898        0.88482884898098
N            2.19969946458742       -0.51577977794420       -0.05413703388464
C            1.06954814243229       -1.41811960867997        0.14958750820436
C            1.26719702458916       -2.67981359601710       -0.69769656406673
C            1.02142258678124       -1.79951449511417        1.63688481027926
C           -0.22811586986236       -0.72440963504712       -0.23853384851076
N           -1.22631204943906       -0.92066830211001        0.56210052228521
C           -2.45438372864236       -0.35622771439594        0.33103220972513
C           -3.43858525072553       -0.75567333104120        1.30808789453039
O           -3.39750476364866       -1.55963628704428        2.17208769474949
O           -4.76544514542345       -0.05207619362444        1.11139305736780
C           -5.88863857042915       -0.84952567275952        1.58340239938358
C           -4.78958319895265        1.32391281631036        1.59423369094405
C           -2.64179200285147        0.44321644027899       -0.77136040314453
O           -3.77287440084739        1.05594317091851       -1.08434282755718
C           -1.53446720018752        0.64673140035222       -1.70551792174912
O           -1.67691001621580        1.33650220646117       -2.70426900163890
N           -0.35597003272348        0.00908329459519       -1.39247707984132
C            0.70455650956351        0.23874979382532       -2.37764529668674
O            4.48760289793770        0.87983363563879       -0.33688687503206
H            7.22173765499050        0.70126180530015       -0.37694677707213
H            6.69318580652895        1.34505212353121       -1.92999430996934
H            7.41372153802397        2.43776975279468       -0.72385925908727
H            3.07992466234095       -0.91489267008269       -0.33424512469162
H            0.41279284844697       -3.34143649695524       -0.56326250731312
H            1.36269850959526       -2.44346958626450       -1.75460963683018
H            2.16854430044054       -3.19649660985484       -0.37266997990063
H            1.98189793218855       -2.21977690327931        1.92844322037671
H            0.23944932472812       -2.53709514837542        1.80648495269526
H            0.81473658729365       -0.91809719751997        2.24211368891196
H           -5.81699982887716       -1.81331282030334        1.08514622981231
H           -6.78898309401283       -0.32086792664401        1.28271616202361
H           -5.83339771082015       -0.95875501935439        2.66615183594483
H           -3.86716539052589        1.79709841417949        1.27033597235320
H           -4.87294535959517        1.32376071429046        2.68075149902704
H           -5.64851812666142        1.79890217249033        1.12702124783032
H           -3.65751242455597        1.52984486345815       -1.93585893428688
H            1.50736272258814       -0.47570688294025       -2.25474754905582
H            1.08458294929383        1.25335133563183       -2.25533836519126
H            0.26351238357929        0.13839769660588       -3.36904787881914
