46
 energy: -87.005925980956 gnorm: 0.000456516913 xtb: 6.5.1 (579679a)
C           -5.02323101823760        0.69969610559673       -3.52219791027839
O           -4.15013957245093        0.49821281312919       -2.42207335022684
C           -4.40707343890818        1.27914520908528       -1.31841682615208
O           -5.33524033229449        2.08719719738766       -1.32937266222220
C           -3.49390501616957        1.02443311053679       -0.22935414509844
N           -2.51282911405677        0.07566376583383       -0.43143957142672
C           -1.65300150639942       -0.23315250015104        0.48018569549389
C           -0.65209972245017       -1.33371985092182        0.11916217417755
C           -0.77488852826663       -1.63842145763992       -1.38550803351019
C           -0.99742830524101       -2.60106864548096        0.92011577772947
N            0.69563025928075       -0.85189269816794        0.43858877416001
C            1.83143596043256       -1.63795285847917        0.04829007638490
O            1.75411053484415       -2.87912473191248       -0.14253355474785
C            2.98638624999086       -0.86298241988495       -0.00971423569175
N            3.09500335666741        0.49887438906726        0.20543304211960
N            4.39214072716817        0.74816553945479        0.01677093225062
C            4.88502845027694        2.09641137474825        0.17516248429023
C            5.08555538010017       -0.32170337411788       -0.29597301879155
C            6.53976246231282       -0.42010349045292       -0.56067807516248
O            4.27309092896319       -1.39359822367531       -0.33557632189709
N           -1.65920103848398        0.36703747876493        1.72417484794226
C           -0.76407067337151        0.05175832739003        2.83353722745245
C           -2.62910039241555        1.33823844815880        2.04274271793028
O           -2.64891452386977        1.86233210096999        3.17629553573450
C           -3.54746739405255        1.66325199726434        1.01687761441906
O           -4.48509839168644        2.61094757570209        1.32327767831601
H           -6.05890846069118        0.47364142810092       -3.24565250635172
H           -4.97312903041214        1.73492721212621       -3.87686275890337
H           -4.70128174247505        0.02521164192381       -4.31515416122270
H           -0.08285676841174       -2.43242432266330       -1.66107035915178
H           -0.54828400018875       -0.74697226389069       -1.96964783397852
H           -1.78972132019862       -1.95916082523971       -1.61809517571534
H           -0.41059526843536       -3.44553343830834        0.56218546297415
H           -2.05575281163315       -2.83061078875585        0.79463848821722
H           -0.79292041044111       -2.46452410806233        1.97994997984655
H            0.81913470202573        0.11760627334618        0.16493297027191
H            4.05074338330380        2.72630904550898        0.47422627000890
H            5.66024888646347        2.11312825302978        0.93948629241742
H            5.30033689701876        2.44793936831765       -0.76819779877711
H            6.76309341100111       -1.40030654016552       -0.97654034077825
H            7.11122696205450       -0.28942290970152        0.36019256593728
H            6.85509184429059        0.35123855896734       -1.26287188699537
H           -1.29682580822726       -0.54534084339125        3.57755573630356
H            0.11401940234027       -0.48454266259260        2.48648310516573
H           -0.45056823692629        0.98766048946211        3.30004887478292
H           -4.31750397213949        2.89353324978423        2.23854020274964
