13
 energy: -19.066698671240 gnorm: 0.000315645769 xtb: 6.5.1 (579679a)
C            1.73023975698419       -0.20654605188152        0.15634592889970
O            0.64550000402079        0.66889783079644       -0.26321473711542
B           -0.82177119676077        0.41081879791781       -0.22406748578764
C           -1.31404364300300       -0.90983323754327        0.41280830725633
O           -1.57364536662414        1.35744172117634       -0.74515768205333
H            2.45486475792754        0.39491304672375        0.70150183852460
H            1.30067692632681       -0.96620073791885        0.80379707554212
H            2.17666725784965       -0.65932386345750       -0.72849001091994
H            0.96176798691604        1.47508641089415       -0.69330721688062
H           -0.99387749022625       -0.98982614119595        1.45150314050917
H           -2.40096819760509       -0.97057813775787        0.38340483205301
H           -0.90717676766014       -1.77244928228334       -0.11431304511969
H           -1.25823402814570        2.16759864452985       -1.14080994490841
