42
 energy: -82.946716910318 gnorm: 0.000641366753 xtb: 6.5.1 (579679a)
C           -3.45400713869669        3.92865188818501       -0.86521209127633
O           -3.48496931219075        2.53422070956788       -0.55394256991055
C           -2.30873733858252        1.92352896485760       -0.43796853100129
O           -1.24985282372756        2.50418641489563       -0.59204371464097
C           -2.40815102340914        0.47822094769454       -0.11593903447359
N           -1.21099965946090       -0.16299244854173       -0.04920448715993
C           -1.20666917461304       -1.46081132476164        0.21152762695651
C            0.14566421891950       -2.15456408801905        0.26160864789954
C            0.38598463329612       -2.71955482656508        1.66537670482521
C            0.19002994887244       -3.25845525604123       -0.79925891598550
N            1.15487295754983       -1.12481020304637       -0.03153127491525
C            2.44146447836849       -1.36182269606047       -0.12634572531432
O            3.03583503774793       -2.41240611750991       -0.07188514470542
C            3.29016683205734       -0.01790996341614       -0.38329823082580
C            4.77144592042375       -0.33708096569039       -0.25191202604709
N            2.89034015825588        0.46787599851260       -1.65063125213732
N            2.25609578831214        1.57487623674309       -1.49550177354354
C            2.26036793506031        1.88223330589678       -0.18226981375481
C            1.64522686162683        3.06075672808831        0.42569062016357
O            2.87303027071895        0.97490924384291        0.52487698517126
N           -2.25255562764854       -2.23906760743115        0.42578998326199
C           -3.49326064853277       -1.67918644329563        0.38951857580239
O           -4.54509828230305       -2.30202557701607        0.57570948033042
C           -3.56510555430225       -0.23605673227475        0.10010461580612
O           -4.79727483968741        0.27903599239186        0.06375677340417
H           -2.91081355360371        4.09416558364829       -1.79865946314556
H           -2.96271943698311        4.48075409935632       -0.06111198520255
H           -4.48863498254699        4.25011714079416       -0.96687948895452
H            1.32894283648431       -3.26247247006776        1.69977457486563
H           -0.42942638384358       -3.39603174156071        1.91840506694341
H            0.41499431716766       -1.90863510852300        2.39139027132123
H            1.12249453526465       -3.81614839818571       -0.73588326610301
H            0.09857499251755       -2.82456220863042       -1.79428353478721
H           -0.64514002822171       -3.93715130218073       -0.62945146553469
H            0.77905605799493       -0.18104626920704       -0.09322023742387
H            5.34948460322039        0.56931679646591       -0.41272315560379
H            4.96495937521267       -0.72763009461605        0.74423236905148
H            5.03492493706671       -1.08644616422522       -0.99447329330507
H            1.84334851575373        3.94238433544915       -0.18144475834170
H            0.55980024420333        2.91465297250342        0.43741670799322
H            1.99884388286447        3.19732006231598        1.44372369827138
H           -5.42253053061080       -0.45033841434841        0.26159453201893
