46
 energy: -86.342586112395 gnorm: 0.000993232763 xtb: 6.5.1 (579679a)
C           -5.96271131598729       -2.19618143594028        0.33294298294973
O           -4.81633480009748       -1.64915170497824       -0.34259743912334
C           -3.90577473848004       -1.02720144383966        0.32112832967456
O           -4.09497757437342       -0.93466014490308        1.59171272148323
C           -3.25599915716854       -0.26402549111337        2.54279900125705
C           -2.78489265934970       -0.50457833351491       -0.43093143875834
N           -1.73571512295216        0.04440766838025        0.26409168549527
C           -0.69272051297836        0.52382857906477       -0.34063533125439
C            0.40011907077917        1.11193093830547        0.54301927301058
C            0.15585018682921        0.74836321861551        2.01260546332194
C            0.40370168488325        2.64093543352704        0.39124909431516
N            1.67426154224267        0.51400755390790        0.13468928728768
C            2.86998929760225        0.89599408837371        0.66012176222645
O            3.05665069043132        1.87101482190773        1.35922583641762
C            3.94112771283302       -0.03478931061998        0.23234784862047
N            3.78139691325772       -1.11095167810536       -0.47949819582392
N            5.01193302093369       -1.67073425898861       -0.62654405284321
C            5.84784385539618       -0.90077813669110        0.00698316655166
C            7.31310038703532       -1.07098002583697        0.13862538018661
O            5.22997135692684        0.14632339201193        0.56912953545038
N           -0.58826947289492        0.53757733835463       -1.70858621706642
C            0.51593693674711        1.11482117986615       -2.48698412938164
C           -1.58506723596731        0.02174714371039       -2.50785560442311
O           -1.53186223931756        0.03008747195164       -3.72709288480794
C           -2.73625856515917       -0.54938583646381       -1.80871846656388
O           -3.67615858729433       -1.05392820646409       -2.58127494391935
H           -5.63404149456940       -2.93652720487918        1.06301615631954
H           -6.57224927952614       -2.65521798393301       -0.44194662851797
H           -6.50511882853589       -1.39563450742514        0.83684630744154
H           -3.79649517084214       -0.30862492262438        3.48753424030759
H           -2.30224331184673       -0.78417664189039        2.61989440604032
H           -3.09493729921430        0.76876167608768        2.23616851819392
H            0.99183707848498        1.10533677096338        2.61227885046089
H           -0.75646849308534        1.22290531898234        2.36532831607589
H            0.06859583029844       -0.33035885202635        2.12606913405521
H            0.75428282483127        2.94521279681359       -0.59137131828275
H           -0.61123860610893        3.00801372993574        0.53326272991871
H            1.04791509796300        3.08638991521644        1.14676607849396
H            1.63193641719255       -0.41269414315433       -0.26350112246829
H            7.80079954330270       -0.82353590260053       -0.80485765751401
H            7.54638452974143       -2.10636444986199        0.38171678004730
H            7.69359575049169       -0.41350743466346        0.91676914837113
H            0.16037596656673        2.03078728238763       -2.95883686155107
H            1.37039992043596        1.31818226661335       -1.85458739461201
H            0.78724270464254        0.39692167198380       -3.26103221769036
H           -3.41571285409492       -0.94956220644877       -3.52118412937581
