33
 energy: -57.843378097717 gnorm: 0.000552011935 xtb: 6.5.1 (579679a)
C           -2.14586871031311        1.54849576143902       -0.40862442801727
O           -3.02293451507814        0.83275888333325        0.48157196920799
C           -2.99415933230749       -0.39051012573858        0.81740927633865
C           -4.09330218865513       -0.86368995265808        1.69423373275786
O           -2.13164416924543       -1.27391388263960        0.48223408405703
C           -0.88203674423452       -1.15806767026002       -0.15602596662070
N           -0.03861054664929       -0.21872713041287        0.32975557688578
C            1.15818850503444       -0.14043799688994       -0.17832499831256
C            2.12370623025788        0.90013779870278        0.36315195269378
C            3.45276228309179        0.23809909258335        0.75043574269725
C            2.34006108343270        1.98426425483689       -0.70096658055280
N            1.55350612861566        1.51903712348306        1.54756038337485
N            1.55695712920872       -0.96650208513001       -1.17919430886591
C            0.77022730757479       -1.96403061768408       -1.72751234975159
O            1.16096636652487       -2.69198304857799       -2.62171814468631
C           -0.55352257319529       -2.05155285450631       -1.12885396912743
O           -1.39591128768610       -2.98953433051337       -1.58848811055531
H           -1.96844434288193        0.96720480191391       -1.31133623662987
H           -1.20478413125446        1.74454823292746        0.10500757345585
H           -2.66382080747927        2.47871548053702       -0.63675829323065
H           -4.92400484042917       -0.16255543602087        1.67638826957525
H           -3.70381427768591       -0.93560107209023        2.71211657543653
H           -4.40779320858160       -1.86008968551780        1.38717119332345
H            3.97528883919658       -0.12796939586243       -0.13131084758168
H            4.07970798173893        0.97437011781785        1.25158930810828
H            3.27432220368802       -0.59498720938790        1.42869428181840
H            2.78924511895385        1.55753317596689       -1.59593680933503
H            2.99875892305124        2.75394781293889       -0.30081469388241
H            1.38657370426340        2.43849023347065       -0.96693815117397
H            1.27159334029612        0.79390828789056        2.19572520419181
H            0.71832181196228        2.02710418257077        1.28636104929898
H            2.48243358285220       -0.87529192078642       -1.57595544768283
H           -0.96196986406880       -3.49317182574059       -2.30064683721725
