42
 energy: -82.996756981052 gnorm: 0.000363074465 xtb: 6.5.1 (579679a)
C           -3.57752550862103        1.07777677041940       -1.47179808576939
O           -4.14603719863574        1.33593159429800       -0.18949878548694
C           -3.64395019808627        0.93882568605003        0.96782566628475
O           -4.39201942209081        1.26450037061282        2.00190038657327
C           -5.62073443081311        1.96158095720194        1.78929446197644
C           -2.45727525594042        0.23294418132846        1.18613825188419
N           -1.67487216867680       -0.06586621034116        0.07252721009440
C           -0.58872560018422       -0.72731397468919        0.20466094766010
C            0.24697192632990       -1.10374913693856       -1.00179988523791
C           -0.00105479856235       -0.14052834708973       -2.16518607008337
C           -0.09160595515179       -2.54293292505750       -1.40393660090978
N            1.66098859405898       -1.06777859607148       -0.62332034107325
C            2.22803869140051        0.05316863059439       -0.11858613615230
O            1.61546302712908        1.05358448382571        0.20699203890843
C            3.69635228720210       -0.10636463686188        0.02606307628949
N            4.39043542187945       -1.15216228210857       -0.31078253000052
N            5.68832661520588       -0.87753769562971       -0.00491471498796
C            5.70446900786232        0.31984200064879        0.49941401841932
C            6.87935848799036        1.07513486026427        0.98728717863958
O            4.47757348944511        0.85873689038569        0.54534644845423
N           -0.14760960730340       -1.20499286884015        1.41689620402929
C           -0.78253819547903       -0.98325772015260        2.60758502084372
O           -0.33521000059434       -1.42703052675759        3.64998359269320
C           -2.06505139423324       -0.16947510840968        2.51753328794593
O           -2.68306274846583        0.07914366136633        3.54701395380245
H           -3.45581339976939        0.00553483652697       -1.63172939237033
H           -2.61128456792392        1.57468108758678       -1.57224536119767
H           -4.28488065662092        1.48565377655800       -2.19412187191318
H           -6.05987989612353        2.10762104158701        2.77467865743760
H           -6.28817241527002        1.36862285943855        1.16118829655455
H           -5.43281449429162        2.92513465399424        1.31149838247291
H           -1.03282292285363       -0.23208578655682       -2.49773320426274
H            0.18026324388932        0.88595708264646       -1.84916683824097
H            0.66133076393749       -0.38484798011654       -2.99325958701703
H            0.12633774478179       -3.22462529156998       -0.58352505910064
H           -1.14947974697380       -2.61314709451960       -1.65127664208308
H            0.49418727265026       -2.83400256245784       -2.27377657306286
H            2.26023451713355       -1.80320021156297       -0.96261470646246
H            6.73757561406662        1.35338978573416        2.03156257899650
H            7.77214764642836        0.46223008224636        0.89037725743623
H            7.00092848144525        1.99015868056494        0.40775234176220
H            0.70143874981924       -1.74925401814042        1.44157712626236
