42
 energy: -82.998273101031 gnorm: 0.000406476432 xtb: 6.5.1 (579679a)
C           -5.26541343091152        2.10447490905186        1.52182904393550
O           -4.60106756646354        1.29059654286165        0.54881915881563
C           -3.28229600243862        1.20336938867423        0.64618789363084
O           -2.64261090515725        1.76384687265818        1.50851804324811
C           -2.68958203011535        0.37471876956658       -0.44831221833309
C           -3.23691903738381        0.29721953294267       -1.69333745860603
O           -4.38483098912253        0.88490479600491       -2.04352730464184
C           -2.55132595479941       -0.43084237479149       -2.77300609108994
O           -3.08638507905217       -0.53135232574965       -3.87184792125541
N           -1.31861024218823       -0.92985856053012       -2.46845828686680
C           -0.81453375555730       -0.84187018594266       -1.26797201405761
C            0.57137948503023       -1.47007302477257       -1.13227779260960
C            1.24610961736631       -1.51302528417441       -2.51303666790506
C            0.42975913794102       -2.90126578676621       -0.59223011745516
N            1.39164810369740       -0.62543495042154       -0.26017315746780
C            2.63807066607275       -0.95816042428384        0.15391854642123
O            3.16926277257440       -2.04408936697789        0.02384905813256
C            3.28066808414894        0.19994398678194        0.82672591772155
N            2.76331451464442        1.38437242254957        0.96291622551055
N            3.68783513965554        2.14464238896838        1.61200022298510
C            4.71242994973479        1.37585132918895        1.82889136633681
C            5.98034748806993        1.73025245283135        2.50345608960886
O            4.51525826911512        0.13643135856049        1.35584379532763
N           -1.46572306583435       -0.26533584248725       -0.23026525243623
C           -0.99606428157549       -0.35473237310167        1.15635730118001
H           -5.06464481719211        1.72415013275474        2.52558425918428
H           -4.91545595607571        3.13653396626928        1.44816087620980
H           -6.32865904667947        2.04603378568663        1.29909331898812
H           -4.54474696779171        0.68196547977393       -2.98807154432899
H            1.29831087231815       -0.51113209539807       -2.93573073512187
H            2.25360366241083       -1.91115181312816       -2.40703906243238
H            0.67728513181643       -2.15216005790922       -3.18544506743286
H           -0.31088624463971       -3.42905610911065       -1.19175149547530
H            0.10941182190953       -2.90954043001744        0.44674060839270
H            1.38039733427526       -3.42517747870996       -0.66692330614023
H            1.15531167167993        0.35585654967374       -0.22569343886172
H            5.98606746896498        2.79179566396572        2.73704248594260
H            6.82483957243225        1.49126352693398        1.85809787055487
H            6.08638471836557        1.15560989457188        3.42355365424621
H           -1.84730490599484       -0.56202849159790        1.80140639911076
H           -0.53235999828433        0.58547306216459        1.45241367734383
H           -0.27827620496287       -1.15980783657092        1.25369111968449
