21
 energy: -30.770048767095 gnorm: 0.000480731141 xtb: 6.5.1 (579679a)
C           -2.53468543778581        1.17236806528397        0.77284741019451
C           -1.56100529649430       -0.01750521476376        0.55745215930003
C           -0.15747063154124        0.31760920491315        0.85737612487972
C            0.87160067093884       -0.00242225878436        0.01332870306693
C            2.30666871826076        0.34400470846868        0.32730007851022
N            3.19575204483485       -0.61328970650454       -0.31628757653764
C            0.58608048847614       -0.64981692850572       -1.20777204427478
C           -0.70895763921540       -0.98947442122524       -1.58820151379759
C           -1.74005074583635       -0.67286354134104       -0.74287955213083
F           -2.96944456857931       -0.96698897498619       -1.07452497984153
H           -2.44140525214214        1.53127462416113        1.79474205882732
H           -2.28392280628436        1.97286740471758        0.08072151106589
H           -3.55425412938198        0.83817847529639        0.59361311849470
H           -1.86905314636381       -0.76146719945418        1.31597033838329
H            0.02807538926034        0.83141968633544        1.79353510860351
H            2.51376320423731        1.33742399735171       -0.08272115209418
H            2.45505397339377        0.38534143919866        1.41312687719039
H            4.13003694144933       -0.22966975914529       -0.33874677106423
H            3.21839595119171       -1.46444161573999        0.22788668896956
H            1.42086012142668       -0.88428257515467       -1.86215918927828
H           -0.90603684984484       -1.47826441012173       -2.53460639846720
