33
 energy: -57.858003519131 gnorm: 0.000763659141 xtb: 6.5.1 (579679a)
C            4.19826929709912       -1.27911448012535       -1.27633360018987
O            2.91130538650607       -0.69289004047523       -1.00285361549075
C            2.84782486018607        0.19071746222730       -0.02273081501365
O            3.77038085651671        0.53679071413236        0.66137058047609
C            1.45179756269590        0.77378615238907        0.11141454818285
C            1.27727672341782        2.12322004646917        0.10470751600158
O            2.29371691335487        2.97244007320510        0.01121889598633
C           -0.06704987086624        2.69111090259210        0.15696167170434
O           -0.31747025706338        3.87275415329067        0.18159972524783
N           -1.06455258520952        1.72194955813613        0.15084910068791
C           -0.89123526724980        0.39109095522161        0.16594162416232
C           -2.14713693393907       -0.46900042148949        0.16858049018233
C           -3.32293114989218        0.26153830157206       -0.50319581205154
C           -2.51164685871907       -0.78635634592619        1.62841030727148
N           -1.87784910603014       -1.70104046198896       -0.55529704745166
N            0.34878289863821       -0.07530621442090        0.20362744410347
C            0.64364251935018       -1.50462855755020        0.39097330270997
H            4.84764863437837       -0.53248709943125       -1.73814442681161
H            4.01574054708004       -2.10453967604026       -1.96042444259402
H            4.64585174133015       -1.63735575125620       -0.34743681093262
H            1.97626575303834        3.89265353358585        0.00178583268216
H           -2.00397177395324        2.09741964456032        0.14283185886841
H           -3.03142275625807        0.64040358233582       -1.48085616985359
H           -3.69534564147323        1.07943981885142        0.11204489956031
H           -4.13216844261089       -0.45477841058728       -0.63527858369033
H           -2.67306119568266        0.13785853541033        2.18052190659248
H           -1.72498379471879       -1.35797200394539        2.11686033769197
H           -3.42985297685882       -1.37084705575110        1.63992029003106
H           -1.86669981797758       -1.51293980043145       -1.54894302461403
H           -2.62298936945653       -2.35884250580429       -0.37126428627127
H            0.74004969956655       -1.97919207731129       -0.58293855986327
H           -0.16011896762441       -1.97235129108195        0.94578681173141
H            1.57193537242459       -1.59353124036307        0.95029005095260
