46
 energy: -86.308676967902 gnorm: 0.000366352443 xtb: 6.5.1 (579679a)
C           -3.50123339545445        1.30078242123286        2.94450527623631
O           -3.07758596928002        0.95157932439805        1.60663342049753
C           -3.72939832848381        0.03398066764047        0.97287604735868
C           -4.22568018576541        0.60690779983901       -1.35480101870304
O           -4.66774495970584       -0.60773698917716        1.32881969913444
C           -3.15310053114132       -0.13496779182779       -0.51671934981836
N           -1.91376301858853        0.54094123273622       -0.61755482063563
C           -0.79969130875742       -0.02766941259035       -0.88381197152135
C            0.40418048935059        0.89862360547224       -0.99488649153610
C            0.05162845461451        2.27031587263109       -0.40337156196887
C            0.76457102564091        1.04543233992866       -2.48152781168012
N            1.50738907999364        0.32829446909729       -0.21983685411841
C            2.75423834353153        0.87640839390328       -0.20589562449821
O            3.13874587692485        1.77440486622630       -0.92637124162054
C            3.60830218832649        0.19324937557984        0.79324760020682
N            3.24229279829593       -0.76680586933912        1.59013283081333
N            4.33572138381910       -1.10302843931376        2.32644620870740
C            5.30170440848559       -0.32611448659070        1.93262296810213
C            6.69647591187989       -0.29469414621547        2.42457168599323
O            4.90199171741356        0.51395265369802        0.96772078444391
N           -0.69043689680987       -1.39543500415637       -1.13010657127295
C            0.53664141970601       -2.11488346601714       -1.49222905986015
C           -1.78106856218038       -2.21339636109400       -1.09064128321573
O           -1.75242638328604       -3.41138174946262       -1.30222630596284
C           -3.07272400824964       -1.55407745296717       -0.79862571859241
O           -4.11107883976425       -2.29214997456360       -0.78094461027346
H           -3.23428599277242        2.34652724492759        3.08164183362383
H           -2.96378313456070        0.67052385943613        3.65327424672839
H           -4.57704823819113        1.15387550194616        3.04325768760867
H           -4.27768003948784        1.64046493974955       -1.02071151664349
H           -5.18861752345162        0.11742059820217       -1.22677313403348
H           -3.92740667627519        0.57822077476773       -2.39997525896404
H            0.92655937371682        2.91649898741733       -0.45088626854326
H           -0.75909504496961        2.72265793855672       -0.97037537144648
H           -0.25966097245544        2.15887903200838        0.63348914462379
H           -0.13166748915465        1.32097732995941       -3.03488450021608
H            1.15739167938626        0.11654247582722       -2.88693244548535
H            1.51054432207264        1.82789426893357       -2.60611169556757
H            1.26452126112262       -0.26605620289054        0.55824537593007
H            7.38735843239520       -0.35916076165892        1.58439480826839
H            6.86403755277245       -1.12604185357979        3.10513498227814
H            6.88515228588135        0.64436440742143        2.94605459345306
H            1.39841807640387       -1.46266912305022       -1.43820209664947
H            0.41090580261367       -2.50496201065711       -2.50233160913168
H            0.64821861241002       -2.95030005291501       -0.80092442924140
H           -3.90181099797892       -3.24025223346968       -0.95541357280746
