43
 energy: -83.118981635043 gnorm: 0.000784774024 xtb: 6.5.1 (579679a)
C           -6.18349595164909       -1.87962407928811       -1.13296862625635
O           -4.96816785063518       -1.20281893347847       -0.78831201369210
C           -4.97844099394576        0.11777284655818       -0.87644760996990
O           -5.95237201065702        0.75707273558429       -1.23346548197978
C           -3.69507756427818        0.75629985357200       -0.49941056552946
N           -2.66943454035056       -0.07323671996397       -0.11570662383620
C           -1.54530111215721        0.44773162102349        0.23102550761766
C           -0.42468378552928       -0.44047712023870        0.72270149317679
C           -0.33813787079748       -0.30166521459584        2.24946524221597
C           -0.67069304397663       -1.89118234599384        0.30326871867993
N            0.82602349930586        0.04249324544421        0.10524856335657
C            2.02554748802225       -0.46571155510184        0.40709546623138
O            2.27568956333850       -1.32779218694142        1.22656661503849
C            3.10557031064023        0.17792560056415       -0.40360202537594
N            3.01541480969302        1.06488422997242       -1.32045768291119
N            4.27046375644065        1.35547747701359       -1.77768076985452
C            5.12095937125051        0.64511871447503       -1.14001368194592
C            6.58514154504086        0.60193406246952       -1.27205259275825
O            4.44533540923234       -0.16186997030934       -0.21632939915715
C            4.97638099695264       -1.13927528737497        0.73730296040924
N           -1.33661453493766        1.79739830418245        0.24231937383990
C           -2.28491044846247        2.73808609422792       -0.12793678882444
O           -2.03002130748652        3.92670535079466       -0.10161961785041
C           -3.55807446932769        2.12332944259691       -0.52580617512721
O           -4.52359935811255        2.96296799276071       -0.89072808032796
H           -6.45878297105590       -1.64926105472710       -2.16461880986962
H           -5.98728783722839       -2.94365628603580       -1.01891524890572
H           -6.98700854718310       -1.56486741742382       -0.46318257174848
H           -1.31222467278481       -0.52494108190449        2.68316972120909
H            0.39633096003783       -0.99502659722294        2.65236368578725
H           -0.05289444413992        0.71442415129459        2.51507556956282
H            0.12484627229580       -2.52820110758221        0.68317897260970
H           -0.70351264494412       -1.96345828922892       -0.78253343237844
H           -1.62489648312753       -2.22374017988682        0.70949567027381
H            0.76585628343419        0.70120953251897       -0.65567755415450
H            7.06167037241885        0.86569584411458       -0.32736739258014
H            6.88532632891857        1.31175055379738       -2.04127390712492
H            6.91393493859365       -0.39950623116939       -1.55198449971395
H            4.67689779437543       -0.81667156078296        1.73208079984939
H            4.54381993629530       -2.10531957639865        0.48590541565511
H            6.05505008636688       -1.13488548442733        0.61968299491553
H           -0.44660355112229        2.16141580215631        0.54247970685607
H           -5.33802172876446        2.46349182495216       -1.13701532541346
