21
 energy: -30.781882808418 gnorm: 0.000345359987 xtb: 6.5.1 (579679a)
C           -1.12667683381481        0.65609441347139        1.74684598869331
C            0.07773414220329        0.46016339603173        0.87426070918686
C           -1.15546402168874       -0.72324554145025       -1.44437011520028
N           -2.30821249760330       -1.03993895261832       -0.97399729350918
C            0.87831537131931        1.54433523262266        0.51266731867667
C            2.02411727991816        1.35994244710906       -0.24512227221336
C            2.36515553528851        0.07185893063599       -0.63460500558497
F            3.47820577478905       -0.10874074589440       -1.35228585353614
C            1.59867306942303       -1.02647896639365       -0.30635772441654
C            0.42737742695760       -0.82378216513652        0.43073485858003
H           -1.86191864885427       -0.12759489382660        1.57036988172076
H           -1.58581865766561        1.62699249599069        1.56574017121972
H           -0.83022686086256        0.60927106480936        2.79722242409313
H           -0.52029629575559       -1.49086591714284       -1.86016360554253
H           -0.90600983186309        0.31669975872776       -1.59495697607603
H           -2.59650153793715       -2.00141302674536       -0.88128533064948
H           -2.96151273897512       -0.34226699710146       -0.65193054565344
H            0.60478634685654        2.54234146622888        0.83411063834849
H            2.64992589019197        2.19694631149043       -0.52844951037088
H            1.89111155115808       -2.01898848713444       -0.62280811552217
H           -0.14276646308483       -1.68132882367342        0.76438035775631
