33
 energy: -58.531132703868 gnorm: 0.000963195912 xtb: 6.5.1 (579679a)
C            4.59947038300631       -1.01156183659305       -0.00941465520604
O            3.19253118291607       -0.90373220712540       -0.07312459766707
C            2.69547934498592        0.40636228991916        0.03335938099345
O            3.53074223337330        1.36009718148434        0.14430602273258
C            1.32477539302654        0.54277950135938       -0.01448716302259
C            0.70339236728063        1.85963818078829        0.15073654374699
O            1.51517313882086        2.91922085525928        0.46146698135448
C           -0.63142497461080        1.98000593606091        0.07106673113731
O           -1.38581074554943        3.13410488549304        0.25499373535857
C           -1.28041258387122        3.73914979063894        1.53641736867161
N           -1.42448374396606        0.84296011182310       -0.31799629745477
C           -0.79247110412607       -0.40532524768306       -0.14616601853979
C           -1.73921030164948       -1.59141349368369       -0.19273208974139
C           -2.15157899186219       -1.83684661154124       -1.65167585002596
C           -1.05783088825147       -2.83797344916897        0.38733783343163
N           -2.94615054413608       -1.25147491572661        0.56874969594155
N            0.46516277659678       -0.57776896268898       -0.06678619371319
H            5.08139622488973       -0.48537729796253       -0.84396922746145
H            4.99151201904454       -0.60125821441960        0.93022333457386
H            4.84644724760240       -2.07360656504669       -0.06636633795916
H            2.45533969664809        2.54183389485820        0.41297132430427
H           -1.54395791257632        3.03234253335885        2.33404028007941
H           -1.98288274893407        4.57531692228540        1.55327662303728
H           -0.26535884275547        4.11708917900342        1.71882424188945
H           -2.36267448267593        0.86004184835504        0.06909943510661
H           -2.64766293993079       -0.95143385798032       -2.05009800568732
H           -1.27249410215816       -2.05397893834435       -2.25899414246801
H           -2.83752062398454       -2.68104060194576       -1.71418571362477
H           -0.77359503025514       -2.65899634444310        1.42404055670589
H           -0.15783791668718       -3.06881360180412       -0.18398479933418
H           -1.73470093393492       -3.68995522799089        0.35012757146360
H           -2.74671980557999       -1.29776589129791        1.55946273727437
H           -3.66664479069447       -1.93261884524181        0.37852269410169
