42
 energy: -82.984469169811 gnorm: 0.000513696998 xtb: 6.5.1 (579679a)
C           -3.70958553814625        3.35996213844785       -1.80071922550996
O           -3.05384850880626        2.54756611858703       -0.81780944248839
C           -2.81973720992920        1.29041336979702       -1.14380081003078
O           -3.10585947703271        0.78898259928199       -2.20119438372398
C           -2.12238429042760        0.52866090105835       -0.03285147710420
C           -2.14033031250210        1.01333676540471        1.37907840002878
O           -3.01033450581228        1.70008753921588        1.84708771248896
C           -0.95815130906581        0.50269292713430        2.20894668428271
O           -0.55267295137980        1.06776163067378        3.20252893058572
N           -0.38620957616050       -0.61334724635604        1.70580215334949
C           -0.89071962047692       -1.39445325564443        0.58726260614969
C           -1.92885491020714       -2.39911947957873        1.10813692575624
C            0.31197613141931       -2.05960677679570       -0.15406707643561
C            1.02507036873837       -3.10474846644071        0.70845377026785
C           -0.15809041407130       -2.68820649754528       -1.47030585130078
N            1.23357243806336       -0.95457970615795       -0.43993802283083
C            2.38728045504441       -1.09041874842340       -1.12479115905801
O            2.78311486397304       -2.11285421351421       -1.65957821753409
C            3.15590955805018        0.17885413420578       -1.19644736624520
N            4.25830386327034        0.39674342724298       -1.84261684149275
N            4.58715413366079        1.70213169362533       -1.63194219340304
C            3.66574918031401        2.20160023035527       -0.86893792074021
C            3.57501301104564        3.58390393452842       -0.35058684022370
O            2.72734944030320        1.29080396774377       -0.55809315094275
N           -1.56465848656662       -0.56575663523531       -0.36952043329061
H           -3.10554761668610        3.40170690027938       -2.70922789209333
H           -3.81157449884479        4.35079742628756       -1.36419153550236
H           -4.68998800373103        2.93964610402416       -2.03429936363747
H            0.32317708601834       -1.03865348412262        2.28242710822178
H           -2.33443651321544       -2.98743347815404        0.28864989549865
H           -1.47072009514135       -3.05817949436601        1.84066220446047
H           -2.73804807943774       -1.84798183031912        1.58468513206768
H            1.34553038643000       -2.67979072767757        1.65705798235987
H            1.90429485211435       -3.46660171929309        0.17659445000509
H            0.36688685452279       -3.94935611680230        0.90056898909890
H            0.68988188399028       -3.12818548591735       -1.99165285877394
H           -0.88353080325782       -3.47362659912805       -1.26906487281377
H           -0.61745154239699       -1.93366004379288       -2.10705540328533
H            1.06496688257380       -0.08303991440221        0.03889673362540
H            3.68383701903716        3.58248914670172        0.73406965272210
H            4.36174257608755        4.19132308425685       -0.79173226151621
H            2.60192627863392        4.01013388081025       -0.59135273097033
