42
 energy: -83.018412225714 gnorm: 0.000743408028 xtb: 6.5.1 (579679a)
C           -5.45259884028263        1.62354924002986       -1.78090687578198
O           -4.25449448256817        1.04668004239141       -1.25122143443356
C           -4.33446071680292        0.52909805939091       -0.03331418721519
O           -5.36010060268169        0.53298714428572        0.62576362048186
C           -3.06797578126015       -0.05968758469886        0.45725775980385
N           -1.97868420292267        0.00314613871686       -0.36251419039782
C           -0.84735117247935       -0.50818322970322        0.00398900074467
C            0.28128532728553       -0.38504383321612       -1.01165304237242
C            0.44083927180624       -1.69890397738747       -1.78426955741023
C           -0.04368719029583        0.74814057637045       -1.99665715999547
N            1.54659545130405       -0.06689141975265       -0.35099331016194
C            1.64438949373432        0.95702813003972        0.52602882712356
O            0.69770542872697        1.60646063714883        0.93861967228998
C            3.03482903082445        1.18930089696489        0.98426779158768
N            3.45627119822294        2.06612018720919        1.84163896399092
N            4.80312306592022        1.89366026259071        1.95083685186480
C            5.12187708102691        0.92072081420349        1.15472097804290
C            6.46284893503772        0.34635640744644        0.91262031425660
O            4.04858392811689        0.43034871980666        0.51329636576131
N           -0.70278611274502       -1.15772627708611        1.20101092238380
C            0.52441416337318       -1.82320359567265        1.63844600591560
C           -1.72922899484341       -1.22481556026816        2.14201971098866
O           -1.54743002166702       -1.76191593907306        3.22558288095267
C           -2.98970294589694       -0.63309897400769        1.70124882764292
O           -4.00663876807054       -0.70478171394049        2.56451348108032
H           -6.25682148711073        0.88452786110355       -1.77672746134256
H           -5.22537167158647        1.93220596041465       -2.79898309273885
H           -5.75001876109268        2.48537231954226       -1.17904108770482
H            0.70701839342744       -2.52242960336104       -1.12606039871383
H            1.22067300516339       -1.58774414754606       -2.53517240531611
H           -0.49659654081057       -1.93947360074331       -2.28341935224175
H            0.78631908406482        0.87045284896543       -2.68929019120359
H           -0.94494588872408        0.50402994772302       -2.55548371691157
H           -0.20409130840804        1.68072727770733       -1.45732091241691
H            2.38488355997236       -0.47957578388440       -0.72157457791234
H            6.46930134942213       -0.70868606865681        1.18726953350747
H            7.20401671258215        0.88195608891849        1.50102846356932
H            6.71175808301024        0.41811812385296       -0.14616406814597
H            1.05729743788579       -1.18023884655552        2.34009406818635
H            1.16122833260810       -2.05149060986957        0.79445507987635
H            0.24489843987789       -2.74786882761147        2.14377882366926
H           -4.81717028314581       -0.30922509178881        2.17131407869277
