47
 energy: -79.493843650718 gnorm: 0.000592902300 xtb: 6.5.1 (579679a)
C           -3.94911254027983       -1.52488379558459       -0.61591062352943
N           -2.67287853864427       -0.91235992832927       -0.99920989360242
C           -1.83439308909075       -1.72571837101579       -1.70688180858850
O           -2.10158011898247       -2.85448778773772       -2.08358942708098
C           -0.50884128036500       -1.15224890135667       -2.01474466323440
O            0.31358061078808       -1.89174582719098       -2.68575895388414
C           -0.10557111368639        0.07747241401319       -1.40870227790052
C            1.01446516304647        0.90208925135134       -2.02136405089904
C            0.46448252907810       -0.71155294674364       -0.01270664274006
O           -0.23859017758690       -0.71199603518135        0.95245283577089
N            1.66545426781191       -1.20557408283622       -0.19589818130127
C            2.42278397435926       -1.77166050546606        0.93038732892054
C            3.59823218918779       -0.89242540192505        1.28632654717736
C            3.44007468600555        0.48651986899106        1.40937072688865
C            4.51573419847247        1.28899786143923        1.75973185641129
C            5.74033678397013        0.68468952852663        1.98722794814749
F            6.78193366019461        1.45304533879322        2.32776217753283
C            5.93038873022174       -0.68091623954659        1.87202631793583
C            4.84536431185785       -1.46915289534399        1.51540350303494
N           -1.15609339638735        0.87710935411695       -0.93634168755204
C           -2.32638118012954        0.40276911791610       -0.69732515111010
C           -3.30346016051055        1.36187553101508       -0.03169807817882
C           -2.74888977912988        2.79272560180054       -0.12790052254625
C           -3.43757936274637        0.96575435258880        1.44654988842824
N           -4.60701429327561        1.29542248590292       -0.68034293555028
H           -4.17173889847109       -2.31769256391931       -1.32873038397101
H           -3.85259292756645       -1.94951409026403        0.38312045432445
H           -4.73183307060260       -0.76934199384153       -0.63229283890805
H           -0.08827186684729       -2.75830572212004       -2.92350995654110
H            1.50962424000785        1.49124449739320       -1.25267313542677
H            0.57135740700637        1.58002930583752       -2.74992150924779
H            1.73750489999968        0.26515656865741       -2.52420733961247
H            2.11103175677652       -1.21690593900440       -1.09804744398107
H            2.75778904445303       -2.76679131459938        0.62998738919887
H            1.73216977829753       -1.86521241564716        1.77350025302522
H            2.47314990455104        0.93719051856026        1.22112643443899
H            4.40800708880485        2.36176271937181        1.85358498126025
H            6.90442755648764       -1.11669514723806        2.05307353934884
H            4.97079904087612       -2.54080652305349        1.41666125182448
H           -3.47071205626502        3.48406343234863        0.30324109038723
H           -2.58009965270422        3.06056040593736       -1.16936521158520
H           -1.80788085850417        2.87516800015579        0.41344065683332
H           -3.97172028651538        0.02409992082451        1.55131934828480
H           -2.44859389726186        0.86421653297330        1.89238827329278
H           -3.98985966934307        1.73902466749236        1.97831816038618
H           -4.54081394411050        1.67733448993818       -1.61368108895971
H           -5.26419066323371        1.85766766201247       -0.15677515692984
