42
 energy: -82.953770683808 gnorm: 0.000678796836 xtb: 6.5.1 (579679a)
C           -6.70712325509159       -0.04305098332706       -0.86749387560274
O           -5.51889495754897        0.63756110957730       -0.47652484328439
C           -4.41820875919245       -0.12620002988806       -0.33832139442110
O           -4.44795072152222       -1.33042407677913       -0.54160073704247
C           -3.21595807483083        0.60605630282457        0.06878120806442
N           -2.12709660499995       -0.21211501740006        0.21460605305972
C           -0.98934944891042        0.25085384032637        0.59935519661606
C            0.17546528362615       -0.69012971153361        0.74028960446894
C           -0.30826089216013       -2.12146878716500        0.93306431520308
C            1.13789100569291       -0.28205757433723        1.84998516588154
N            0.96628822586486       -0.57551835754566       -0.60418666727524
C            0.20882323167350       -1.08202623100189       -1.77777809848306
C            2.29277426743346       -1.26480961589179       -0.53734520634996
O            2.36107317574517       -2.45798112978245       -0.58430549647350
C            3.34827845280398       -0.28925511244895       -0.43290501381269
N            3.17562656303801        1.01105337949930       -0.42931686965111
N            4.39320866965514        1.56655952879684       -0.32378077117476
C            5.25611969380040        0.58305858669194       -0.26839682846153
C            6.72291967477205        0.68011595788797       -0.14649404726534
O            4.65197218981499       -0.60568555697805       -0.33552933449730
N           -0.79632195725746        1.59792478617674        0.82795078829750
C           -1.79199555450760        2.54167344998618        0.69650060008155
O           -1.53989354600363        3.71972931942049        0.90525172745773
C           -3.15336588927615        2.01222674945607        0.29228335945448
O           -4.09017531211423        2.81233488373901        0.17961312644517
H           -7.00223998976150       -0.76769337516383       -0.10288124543549
H           -6.55370533251693       -0.56950745475317       -1.81391732744122
H           -7.48281068179547        0.71268193661476       -0.98295792189885
H            0.51446248824894       -2.82724595104355        0.85429864347073
H           -0.74033721667327       -2.19804702491757        1.93017194860749
H           -1.07957475623641       -2.37197572795849        0.20632536419982
H            1.89274704645852       -1.05210945320343        1.99892510846400
H            1.64069747625352        0.65369521415384        1.61429880403456
H            0.57767829091964       -0.16040652185872        2.77569219653545
H            1.15577981740605        0.42400028225536       -0.73420160042700
H            0.23420596463206       -2.16846200028095       -1.76775094286160
H           -0.81453565841283       -0.71754310511820       -1.70892985450891
H            0.69571577077132       -0.70220957452127       -2.67207090370722
H            7.02076924432100        1.72525235030307       -0.10171523518457
H            7.05232435206112        0.16357085590926        0.75569215474055
H            7.19724664669972        0.19650341328921       -1.00107639909631
H            0.10573207712008        1.94303542599168        1.10639324927512
