42
 energy: -82.999372210702 gnorm: 0.000996126018 xtb: 6.5.1 (579679a)
C            4.25412597214756        2.84296304316771       -0.73685961747372
O            3.26524846693877        1.94649805338658       -0.20767189015929
C            2.68432538259325        2.31257796341036        0.92708650675471
O            2.97862783194117        3.34448426154606        1.50283678348701
C            1.72483671803440        1.34258479729265        1.51066474181748
C            1.51092850606561        1.37628822627833        2.86588595344232
O            2.01671666641859        2.29761596155541        3.68056395902676
C            0.71493832945773        0.31638721929652        3.52495454261170
O            0.48971129296374        0.30771442257266        4.72484947169372
N            0.26174115143566       -0.67016275546120        2.68464173229859
C            0.42365550205114       -0.64194460134980        1.39507023720972
C           -0.16293102653817       -1.84907077560106        0.65723502084520
C            0.95667512792254       -2.62235050798340       -0.05468041276747
C           -0.85928807792491       -2.77595377987419        1.66535537400222
N           -1.17584130743620       -1.36873890686818       -0.29266522634847
C           -1.80681300827695       -2.17857954210005       -1.17340013647882
O           -1.56508992102227       -3.35940702830157       -1.35183600429954
C           -2.84401453215227       -1.45941145487011       -1.95507204733918
N           -3.65934357500262       -1.95443376825761       -2.83264954224906
N           -4.41825542740346       -0.91972478135965       -3.29238280201961
C           -4.01805640547687        0.14373430945823       -2.66873589171001
C           -4.52160087653996        1.52572355360382       -2.82111157694193
O           -3.02468932690728       -0.12837492589080       -1.80474170335735
N            1.10803843068701        0.33835851164349        0.75631293378158
C            1.13477803388301        0.46483132120187       -0.70205415392941
H            3.78409713540864        3.78924101795898       -1.01162242161503
H            5.02994232933785        3.02227988531497        0.01014529894326
H            4.67077612289065        2.35409277192100       -1.61441245904918
H            2.51310521897273        2.98270639046144        3.17832512245487
H            1.29841861072989       -2.10253359425134       -0.94529785635218
H            1.79623197710919       -2.74206111177099        0.62895173452687
H            0.60043967810849       -3.60813103705048       -0.34912337601636
H           -1.29687480655681       -3.62069186815914        1.13607426231921
H           -1.64452133045282       -2.23660744696710        2.19195532148480
H           -0.13559002963716       -3.14429879563371        2.39044191982537
H           -1.56976620057394       -0.45658524545362       -0.13292942664708
H           -5.30964320012034        1.54730635844387       -3.57000123002227
H           -3.70905708254826        2.18422249587996       -3.12644128926914
H           -4.90878825851955        1.88887050456641       -1.86945286695616
H            1.01880784195813        1.51395943198302       -0.96271890600792
H            0.31407896847969       -0.09388988506271       -1.13790444482957
H            2.07992109756416        0.09051031131860       -1.09142763468614
