16
 energy: -33.374540290776 gnorm: 0.000635397584 xtb: 6.5.1 (579679a)
C           -2.36991152537952        0.12806412246142        0.01716494063387
C           -1.02692551231355        0.67952819849508        0.24080998901040
N           -0.69277596054979        1.83599166506273        0.68091595586891
N            0.66275649764572        1.91971842111404        0.72985978297443
C            1.16424867620265        0.81443991224133        0.31985147717571
C            2.58151441047971        0.40059943781496        0.18004448777383
O            2.89948693491597       -0.67877784474912       -0.22351818111625
Cl           3.67955219953738        1.61006169799070        0.64944217232225
O            0.12520293583472       -0.06195739771258       -0.02370970320415
C            0.25591506399875       -1.43117608753961       -0.53212975712958
H           -2.53833364048755       -0.73542220331083        0.66233808732874
H           -3.10467143835417        0.89914169327809        0.24380047864512
H           -2.48433924262127       -0.19405500189537       -1.01816602277345
H            0.79878602743182       -1.37641456888928       -1.47329673031862
H            0.80220694093302       -2.00276601320024        0.21514255719982
H           -0.75271336727401       -1.80697503116130       -0.66854953439097
