42
 energy: -83.647364446431 gnorm: 0.000842080324 xtb: 6.5.1 (579679a)
C            6.05209677624084        1.73941855542393       -1.52697800533955
O            4.96346985056666        0.88717794436545       -1.23089789553432
C            3.92571403266049        1.47171956835266       -0.53118609407887
O            4.01061712673538        2.66432402600971       -0.21808815185259
C            2.84514073835552        0.59124532738349       -0.22022927393004
C            2.73966044781315       -0.75604017279314       -0.62017226600645
O            3.57535139538538       -1.42571104226561       -1.26080452861430
C            1.41324468833148       -1.45902900535547       -0.17525859742129
C            1.62499482570487       -2.97310256660672       -0.06794091398024
O            0.35299580422593       -1.18543168950514       -1.07844786134960
N            1.08439091149797       -0.92350239325922        1.13813604246289
C            0.91277263206388        0.47700119785603        1.04664787082908
C           -0.45029365992234        0.98619108316960        1.48498562459105
C           -0.53091855394979        2.50445769852836        1.26876436685123
C           -0.72798868821343        0.64853924939597        2.95889522188524
N           -1.33977385808240        0.25214882345824        0.57013427747998
C           -2.63108300636107        0.45975137537861        0.65355822464270
O           -3.28803661881522        1.19884609312620        1.41954087867615
C           -3.36116895858244       -0.35840027396965       -0.38832202728906
N           -2.83198755916687       -1.07931393128027       -1.33129478638619
N           -3.86748520327527       -1.62473941390052       -2.05122421763203
C           -4.95573110318065       -1.19861157995345       -1.50011719104612
C           -6.35006460470240       -1.50027465604555       -1.90426870468995
O           -4.71377996627481       -0.39536536124558       -0.45028948605078
N            1.74963560510873        1.21589583791595        0.43705325268196
H            6.51827876789439        2.12027553346164       -0.61074533109358
H            5.73378697496822        2.59492696076667       -2.13431438705637
H            6.78166293051182        1.15182135733610       -2.08514897925415
H            2.37205796302819       -3.19066503610704        0.69363839215328
H            0.68752584784675       -3.45816655135621        0.19761233319028
H            1.96893891078469       -3.36108501336382       -1.02645114328484
H            0.24394903341406       -1.36745542975755        1.49558793853705
H           -0.36585522564133        2.74345215193980        0.21707072314111
H            0.23968487887702        2.99879036089408        1.86211835391734
H           -1.50569638280716        2.88344510878771        1.57207831139191
H           -1.69640681357498        1.04412165693724        3.26261412052849
H           -0.73241934354429       -0.42987166520383        3.11394530999603
H            0.04410654949518        1.08927997853305        3.59084798199354
H           -0.38555976871780       -0.72607153840080       -0.56119056537600
H           -6.89113029032430       -1.95848493089747       -1.07707176802670
H           -6.86971896969688       -0.58279790649520       -2.17970719448726
H           -6.34497611668156       -2.17947273127392       -2.75308085516898
