47
 energy: -79.485132597448 gnorm: 0.000730320496 xtb: 6.5.1 (579679a)
C           -6.02387514647020        1.55509626129238        0.47397331683112
C           -5.58750891436268        0.07419125416208        0.63045673825682
C           -4.70094913812502       -0.39190942985412       -0.45397248306867
C           -3.54352297603435       -1.07889799325664       -0.21680720924860
C           -2.65951063538435       -1.54737681257515       -1.35664473864906
N           -1.45742081647051       -0.73701049097385       -1.43862919759958
C           -0.36995015857793       -1.06010334219731       -0.69872612840699
O           -0.34855646175663       -2.05394707420869        0.01679580494553
C            0.80591393793055       -0.14523481109222       -0.81640007669263
N            1.86802223384714       -0.51496867912473       -0.04165049212030
C            2.96808179482894        0.16837558831926       -0.01104825575602
C            4.06859947779230       -0.39169081228324        0.88178699452939
C            5.03054636884027       -1.22592890754435        0.02303885314851
C            3.42936587105379       -1.29378978876856        1.95257603518538
N            4.80236725345209        0.68283578541842        1.53314423369297
N            3.14294538180757        1.29483154744503       -0.77521787466260
C            4.37583975093720        2.08770853875391       -0.77623022970674
C            2.12261028130104        1.77344896445931       -1.57465116351443
O            2.22333493547209        2.79422514154222       -2.25103624580494
C            0.90422632603944        0.98266407742785       -1.57798192691021
O           -0.07711080976151        1.45473826445113       -2.37080204945658
C           -3.14885149740271       -1.33776643766880        1.11599739403242
C           -3.90759812317693       -0.91658387851533        2.20529663941167
C           -5.06787053469532       -0.22746453090894        1.97045928256804
F           -5.79313854189446        0.19103927908162        2.97522200125905
H           -6.72904282988810        1.80651496694160        1.26317868530605
H           -6.49793703167151        1.68818683981227       -0.49527251626434
H           -5.15099859574745        2.19956344871177        0.54444352892727
H           -6.52747986892817       -0.49933607175484        0.52848305254258
H           -5.02291607882333       -0.17278989142814       -1.46531718297105
H           -2.36118054524438       -2.58621781412685       -1.18460157940462
H           -3.19379585315545       -1.46925385492641       -2.30416229564156
H           -1.52715539267553        0.14140951232252       -1.92519140515646
H            5.77436589978764       -1.69783497618372        0.66330610883290
H            4.47565140193906       -2.00094095355956       -0.50434631820423
H            5.54457169866446       -0.60399056666029       -0.70756579388371
H            4.20148940275187       -1.65207255398499        2.63079002882189
H            2.68941866049965       -0.73204211939632        2.51985512208677
H            2.93790677407386       -2.14550257836533        1.48416950189041
H            5.64740108440271        0.32451654560761        1.95383135066828
H            4.23763092458772        1.11215776389814        2.25311686257568
H            4.41196421313923        2.70610757276824        0.11841890228748
H            4.36847678739997        2.72284421119625       -1.66126178052976
H            5.24199659033310        1.43443137748905       -0.79778788497415
H            0.23257525676117        2.28079255080534       -2.79291007480741
H           -2.22291911491645       -1.87748853788352        1.29195879029632
H           -3.58601424248424       -1.11553658466445        3.22048267534198
