42
 energy: -83.673706001044 gnorm: 0.000992387619 xtb: 6.5.1 (579679a)
C           -5.91477191604926       -0.31352066908125        2.31264177141393
O           -4.72139254639406       -0.14295476102413        1.56755894421142
C           -4.73499003762484        0.88419382974534        0.65350408566310
O           -5.73794728206440        1.57606779820503        0.53330084756113
C           -3.48618244775124        1.00223574251781       -0.07078131202863
N           -2.51672015133729        0.06887322873950        0.26584941805668
C           -1.37145811673803        0.08918796655219       -0.31446568783254
C           -0.30751626428633       -0.95330949264927        0.00221087318448
C           -0.70161875852895       -2.24000185521966       -0.75513102455190
C           -0.32148799576320       -1.20931688129611        1.52002075160894
N            0.97638693798141       -0.42869704834543       -0.45462047935668
C            2.03436828572033       -1.17315914055630       -0.28346066587634
O            2.15535895469148       -2.32100939339388        0.20689491528283
C            3.35044804897389       -0.48966529708755       -0.80989274181278
C            4.13818922079559       -1.46394412161354       -1.68640852611039
N            3.08921723014744        0.76185482839893       -1.54090905867106
N            3.69122298123457        1.80793691924606       -0.78071571744861
C            4.28887859001170        1.25965546142929        0.19778072619073
C            5.09563406778842        1.97284811995628        1.22434324853271
O            4.17887076577912       -0.08193971395970        0.29770562090120
N           -1.07126114767298        1.01585976964727       -1.28478648325006
C           -1.91859977862824        1.99453168743371       -1.70976630691128
O           -1.55852513822477        2.79650438447735       -2.57609436561733
C           -3.28029236985308        2.00709522214218       -1.05260482231967
O           -4.10884375740001        2.87410881682963       -1.40165446352472
H           -6.76211185383380       -0.52571501300896        1.65183953451479
H           -6.14343333383394        0.58383538208207        2.89793088618231
H           -5.75679627178084       -1.15659749768915        2.98484224105256
H           -0.02050527171950       -3.05234645004887       -0.50555922675657
H           -0.66391331349943       -2.06406412510790       -1.83035458557443
H           -1.71602136095958       -2.53276917260892       -0.48117464204893
H            0.01448336069046       -0.31732921859760        2.05010204159902
H           -1.33664453076782       -1.44670967693508        1.84136496607552
H            0.33398381237444       -2.04098435248860        1.77442032454041
H            2.07321379505036        0.94531462623475       -1.52220068366601
H            5.10137135914022       -1.03368327278799       -1.95505807473559
H            3.57255139714820       -1.66768520397881       -2.59380969349117
H            4.29495863378855       -2.39499357022762       -1.14278067905905
H            5.11169650271630        3.03809684523815        1.00715307749637
H            4.67189949883258        1.80970030172774        2.21521159777985
H            6.11529161770291        1.58916389364372        1.22746147409417
H           -0.13698841586035        0.97333410343975       -1.67990810530608
