42
 energy: -82.962695000783 gnorm: 0.000574626180 xtb: 6.5.1 (579679a)
C           -4.49725195154865        3.54353114209958       -0.90369206871413
O           -3.54761839397392        2.82981692038923       -0.11798073195043
C           -2.94294060263298        1.78983433458564       -0.72307825714020
O           -3.19580695919365        1.49074846292302       -1.87925625894255
C           -1.98243709966499        1.06994297002104        0.12091381158236
N           -1.40636558354484        0.00900264523083       -0.52130839619679
C           -0.54843193332927       -0.74289909867868        0.07368512121335
C            0.07067440659702       -1.91625172158296       -0.66285586510408
C            0.15172280532322       -3.17745511147117        0.19033836936335
C           -0.69198276179367       -2.16741243746008       -1.95702227919242
N            1.50473884136909       -1.46362375925313       -0.95713005145263
C            2.22120784695268       -2.19681817445110       -2.02442193009433
C            1.43154880784176        0.02005955998174       -1.30300183655596
O            1.08708982136769        0.34682535039565       -2.40138865618135
C            1.88127220356515        0.84892767399030       -0.21814472512374
N            1.81097592242176        2.15053076196455       -0.11237564389298
N            2.26566036573607        2.46938238016164        1.11217686929775
C            2.58914226473437        1.35503853858346        1.70961888221170
C            3.09189047689743        1.16827916894087        3.08145525754887
O            2.36747424142804        0.29428870098980        0.91951309345394
N           -0.18390749077698       -0.52580464655777        1.38763563364214
C           -0.59288671775164        0.56776295827581        2.11526541402002
O           -0.09358553891122        0.78818847658126        3.21132304173301
C           -1.64261583578339        1.43830890763452        1.45674147907336
O           -2.09938745922174        2.39906746460391        2.08741059934078
H           -4.02074757333353        3.96400732127543       -1.79370993408236
H           -4.88918410335212        4.34360395056724       -0.27815647789081
H           -5.30989021408171        2.88163580000535       -1.21595536452525
H            0.79043255679608       -3.02670088211783        1.05802573661447
H           -0.84850250216065       -3.44048094366193        0.53195162386115
H            0.55087599532837       -4.00518870242585       -0.39206570939709
H           -0.65617533917302       -1.29295642379870       -2.60491495584413
H           -1.73239774678721       -2.36313294112100       -1.69936612529064
H           -0.29374517845039       -3.03143233180340       -2.48230589833978
H            2.04050021208571       -1.56457022485189       -0.09479869647934
H            1.77064144728280       -1.96090458107476       -2.98478605543709
H            2.15903896509288       -3.25912643550763       -1.81325508122363
H            3.25723011232935       -1.86874535809452       -2.00375851486717
H            2.27445973292708        0.79497736067558        3.70375810409044
H            3.88665957515548        0.42568399406545        3.08932851969308
H            3.44962675585296        2.11311658864950        3.48325760007837
H            0.52300162834322       -1.09905765871284        1.81233435709088
