43
 energy: -83.122049845441 gnorm: 0.000575763982 xtb: 6.5.1 (579679a)
C           -6.08255393885907        0.71154357979052        1.84893562143996
O           -4.83949315990528        0.79006107872949        1.12553243878202
C           -4.19659439390888       -0.32183561752077        0.86598966533800
O           -4.52959871572996       -1.43565156368620        1.15767779106370
C           -2.89523938524215       -0.03521579296463        0.11885088502053
N           -1.82937159467907       -0.61589762957489        0.55768353709058
C           -0.65653149329814       -0.49437805349498       -0.11077761526951
C            0.53511412216731       -1.14300595785283        0.49611757226208
C            0.35268260768716       -2.64286478629381        0.15191982000486
C            0.56981079388313       -0.93404228401374        2.01723078236760
N            1.73797337398917       -0.61025949365553       -0.12391814801562
C            2.97529911059481       -1.14102545597364        0.14623568254653
O            3.17110024783563       -2.19908429941483        0.70176701560438
C            4.03967744982215       -0.25065998967486       -0.35730990915668
N            3.86995225370687        0.92614638860729       -0.88587458827367
N            5.10598260165066        1.40496987521509       -1.17968107396392
C            5.95704268799373        0.49186442078855       -0.80892073976385
C            7.43105862202215        0.52865961391482       -0.92350038319491
O            5.34163177818146       -0.57451265939204       -0.28126218082351
N           -0.60940934959344        0.03692835676028       -1.31910714404003
C           -1.73389041736729        0.61603301302550       -1.97663886225282
O           -1.68423537996494        0.89875583341972       -3.13142959371223
C           -2.87546015134216        0.92388518132244       -1.02450622932303
C           -2.52008167484925        2.31901369458354       -0.41330320110783
O           -4.10385984763590        0.95051314902724       -1.66237062661113
H           -6.61289508215152       -0.20365396153422        1.58096941085479
H           -5.87039741795340        0.72444318509097        2.91896344481113
H           -6.65622825169527        1.59155574895079        1.56632983022712
H           -0.62926548968929       -2.97654413289543        0.48212338598376
H            1.11988055864279       -3.21639937675978        0.66778095396192
H            0.44780993408411       -2.78699507845422       -0.92183734922790
H            1.40036528466961       -1.50146892243672        2.43336039042934
H            0.70656030463605        0.12201391499928        2.23967555394806
H           -0.36367873293605       -1.27773504941903        2.45833356262824
H            1.72924694607986        0.36720591943999       -0.37520253808564
H            7.75067922024843        1.52101910546810       -1.23267894609501
H            7.76230291555851       -0.20399704069312       -1.66064506584980
H            7.88521600483732        0.27341762919911        0.03353889885531
H            0.23174034471136       -0.04400378605931       -1.87954929162282
H           -3.33464857341335        2.61248685843952        0.24500895495896
H           -2.42874504563894        3.03370300528569       -1.22804744449404
H           -1.58827477156605        2.26786971619348        0.14262791535571
H           -4.08067929559819        1.49714366350813       -2.46008918264709
