43
 energy: -83.864524109060 gnorm: 0.000372850551 xtb: 6.5.1 (579679a)
C           -4.45681325840279        3.24228018059605        0.96113793920764
O           -3.64235508351344        2.11696859024212        0.62247731255109
C           -4.28021179785649        1.04271543487783        0.17830645454890
O           -5.49437225361478        0.99849704502076        0.05823123202404
C           -3.39510588456473       -0.09402481970014       -0.16339994083179
N           -2.04972101919121        0.08087433268913        0.01299200084004
C           -1.23759482334964       -0.88209505030510       -0.27684167914155
C            0.26357184135168       -0.73656800410669       -0.06132972691671
C            0.64715715978726       -1.71580463447825        1.06908233950131
C            0.98759515547976       -1.12414639237467       -1.36455393432424
N            0.51882409621733        0.67363840117165        0.22373752869549
C            1.72805325447448        1.01195514745489        1.12995914629787
C            1.75946881423881        2.58318876837061        1.07472887490204
O            1.67243629282051        0.51941268657800        2.32415567766480
C            2.98186075119167        0.59070219713423        0.29127012518279
N            3.41956748479849        1.14843345554246       -0.79772344768909
N            4.60342448697927        0.51722515448160       -1.12781757213421
C            4.80445561397331       -0.37103561171350       -0.21264120285959
C            5.94334675952496       -1.31557735374273       -0.10477162589962
O            3.82624637027980       -0.37768945396925        0.71196525735488
N           -1.70487234896978       -2.07654425188276       -0.75436460210595
C           -3.03097762472161       -2.37547774184755       -0.98147509639625
O           -3.36317316825578       -3.46656691165116       -1.42028097425435
C           -3.92563519692183       -1.26683626535989       -0.64486348586397
O           -5.23203446220884       -1.48239313457789       -0.83624278047343
H           -5.00365441541628        3.58619198333060        0.08046214763272
H           -3.78576277436671        4.02075801089682        1.31777128045330
H           -5.17004164096968        2.96740707216316        1.74130050021300
H            0.15327946539795       -1.43019564120627        1.99641708672082
H            0.34082616599230       -2.72530496977177        0.79652254072646
H            1.72291794183789       -1.70796133704517        1.23095103328552
H            0.68332090660708       -0.45121598400768       -2.16582809537370
H            0.75926573704271       -2.14833179853627       -1.65283803716411
H            2.06368565093031       -1.04167650758412       -1.22871886054092
H           -0.28056513840953        1.01923254020613        0.75976914878681
H            0.89150388162356        2.96375046517992        1.60971957285351
H            2.66227120577433        2.93390240953494        1.57234016821348
H            1.74420047755568        2.94087585108343        0.04631892768995
H            6.57362165254449       -1.22796015086116       -0.98631373374726
H            6.53581816248530       -1.09401787258695        0.78316601605866
H            5.57712748568056       -2.33798178499945       -0.02049255508608
H           -1.05967400679480       -2.82299558001500       -0.96949441194494
H           -5.75128091705747       -0.68560547422128       -0.58197954865740
