47
 energy: -79.492659270472 gnorm: 0.000738356954 xtb: 6.5.1 (579679a)
C           -1.95652616061741        2.54911481882023       -1.10426824676692
N           -1.59559743579113        1.12740626742848       -1.06352575489523
C           -0.66846624534974        0.77283487147080       -2.00099175459268
O           -0.20279486038503        1.53333454060315       -2.83338191226773
C           -0.24266594751312       -0.63873407944675       -1.96961463532123
O            0.62362796550441       -1.02172251440315       -2.85183008113413
C           -0.67135394267851       -1.49242057061688       -0.90794278608234
C           -0.68949867103135       -2.99968029421338       -1.11328765787071
C            0.63126778862827       -1.08479747307018        0.10703688588356
O            0.42906378195077       -0.29418367172502        0.97763401713392
N            1.70957413341605       -1.77039814240166       -0.18669914778192
C            2.84606755142258       -1.78835676450169        0.76101856644303
C            3.68404411672563       -0.54210462359531        0.61415958547042
C            3.41322522986534        0.57786988218047        1.39831964216640
C            4.17781716647682        1.72774353303379        1.26880058300200
C            5.20854648880833        1.73060420728653        0.34530074771163
F            5.95122668903116        2.83655556845133        0.21511752689694
C            5.50305674630747        0.63557216579071       -0.44828028709981
C            4.72875532711404       -0.50681662569815       -0.30703280805476
N           -1.79583490372205       -1.04059824361614       -0.19871315102832
C           -2.18299663072607        0.18411996989120       -0.22583113544395
C           -3.38308344581656        0.52714925275649        0.64812657761590
C           -4.59928856306839        0.80078494535337       -0.24752435919115
C           -3.68434449690366       -0.65890553725133        1.57761117481716
N           -3.08852972609230        1.71272420864958        1.44588022620292
H           -1.04056049747419        3.12157343805588       -1.25035695491385
H           -2.62288920240506        2.72074763582098       -1.94937131164226
H           -2.43668505631844        2.83132300224808       -0.17111057316660
H            0.86646720882292       -0.29465774687606       -3.46822206601620
H            0.10389542402711       -3.30824106607176       -1.78871074210527
H           -1.65080939965136       -3.26532034423564       -1.55190316832742
H           -0.58533532021998       -3.51298098899079       -0.15996515159380
H            1.79433356999068       -2.31246256500673       -1.02957891512747
H            3.42072582594223       -2.68532466708188        0.52966749391267
H            2.43327587309885       -1.86575803065582        1.76942956172230
H            2.59862619099997        0.55072518550743        2.11184304695311
H            3.97908773002698        2.60535859199347        1.87018133375807
H            6.31739509888133        0.67708443578636       -1.15965975651180
H            4.93820535271492       -1.37585596458003       -0.91826344751146
H           -4.45173741909566        1.69741963379512       -0.84538731530017
H           -4.77000847070932       -0.04452584396372       -0.91269881810489
H           -5.48008055925571        0.94122974367200        0.37740055584074
H           -4.50909005677303       -0.39503894444069        2.23734883402641
H           -3.95787432229549       -1.53923938089463        0.99842572786954
H           -2.80838964327860       -0.89289046042358        2.18027697863855
H           -2.36402950211434        1.49302381273115        2.11778801224139
H           -3.91981578046620        1.97671583244013        1.95724285954536
