46
 energy: -86.349859540706 gnorm: 0.000423242599 xtb: 6.5.1 (579679a)
C            6.60067677173808        1.53738430775224       -1.74467812645328
O            5.59715544356761        1.26842885446916       -0.75149545549088
C            4.46296407046440        0.71601856312575       -1.19767127427896
O            4.27211187990926        0.44647808004100       -2.35824050527884
C            3.46680783353409        0.47534773151773       -0.11550278429338
N            2.30899702669218       -0.09625521048691       -0.57003398825387
C            1.33123168685238       -0.36418711097411        0.22693416017904
C            0.12336557087082       -1.03640723267227       -0.41553125104253
C           -0.05145337705740       -2.46509236735045        0.11572910858988
C            0.30394241312662       -1.05883147608747       -1.93875652111397
N           -1.06015216226108       -0.19367456685264       -0.13062180042581
C           -2.31091370054617       -0.49031674838907       -0.39521705186645
O           -2.60103911977407       -1.64979132648594       -0.89201117807089
C           -3.94392370426472       -2.06801354807614       -1.19682315368938
C           -3.26407835719407        0.54664571874908       -0.08307483598013
N           -2.93377259538650        1.71590210427211        0.39910737755396
N           -4.07261779919551        2.40620862599838        0.56577840779426
C           -5.05116977822630        1.62937221703878        0.17946134342192
C           -6.49442263274041        1.93052265505977        0.17422084710349
O           -4.59540993210826        0.44301918486476       -0.24165939064104
N            1.39593374096103       -0.09405438119578        1.56736862991439
C            0.33683091568517       -0.37757867755437        2.53721928811964
C            2.53348687553685        0.46962611488381        2.15096934224837
O            2.56994996640544        0.68049580072254        3.35111161068018
C            3.61901655474667        0.76849934593665        1.21435411026108
O            4.69570628641310        1.31556329071861        1.78115649828196
H            7.44492712099781        1.98000414012230       -1.22183785471397
H            6.89662317535379        0.60604379960859       -2.23210193195465
H            6.20494423854164        2.23082160528024       -2.48966450331562
H           -0.66617934303334       -3.04999573894617       -0.56415134054578
H           -0.51792710115816       -2.47408261142460        1.09682127374187
H            0.92965547967268       -2.93374045675755        0.18522384430601
H            0.44536266008642       -0.04737015543260       -2.31473326357252
H            1.18036454337979       -1.65482465665091       -2.18675467885098
H           -0.57456382095386       -1.49803050478866       -2.40487561340053
H           -0.89563844639175        0.75439333758142        0.18974082184147
H           -4.54795108733166       -2.06610828916806       -0.28980185408980
H           -3.84705595943452       -3.07715417103765       -1.59269711853845
H           -4.37864345920442       -1.40224031155759       -1.94245924365700
H           -6.66249012996457        2.93430542809333        0.55782658697551
H           -7.02456210537981        1.20468499605317        0.79133483438673
H           -6.88475499927383        1.85214270702985       -0.84082577652068
H           -0.60144107631915       -0.57175029477944        2.03600936286251
H            0.62785136078294       -1.23896310839122        3.13889306375941
H            0.23128480645089        0.49199060887820        3.18673141840312
H            5.40097126542301        1.50456272724704        1.13688056560730
