42
 energy: -83.622546637994 gnorm: 0.000630526082 xtb: 6.5.1 (579679a)
C           -3.91646481877746        3.51710767248081       -0.22918947301412
O           -3.33170524806314        2.38003902377698       -0.83431004456355
C           -2.58773289734800        1.58288652660947        0.00000656849426
O           -2.47257357569700        1.89953441758268        1.18709428758401
C           -1.98288336816920        0.41657707647659       -0.62302316322492
C           -2.15571849069487        0.10192653537482       -2.00342489691642
O           -2.95981982658694        0.66800398495176       -2.80528501928076
C           -1.24275304144858       -0.96071329954452       -2.52984631835250
O           -1.09183883173819       -1.21687203408304       -3.73409447730434
N           -0.45589773339989       -1.60736631636817       -1.60842344857128
C           -0.79933898424485       -1.60597479657605       -0.18923538135654
C           -1.94334477082228       -2.62967119702017        0.03883479595555
C            0.48264646434257       -1.95342608600740        0.64249090806630
C            1.14302429857349       -3.27352065145615        0.23386327599035
C            0.13374246701297       -1.97749769678097        2.13922728108952
N            1.38619998500392       -0.83645822305391        0.36424532333914
C            2.61334613890984       -0.69143568749766        0.94159045319649
O            3.19088419004555       -1.57798733836633        1.59889217955652
C            3.24117645070464        0.59244065063765        0.67796547634445
N            4.42081248626399        1.00853723525511        1.10991833556895
N            4.58274771277028        2.28161694729455        0.63793866621527
C            3.52053520024701        2.57635386001464       -0.04024428779433
C            3.24019545469827        3.84948605489057       -0.74747167495921
O            2.62256818195709        1.56743955961030       -0.06517824519965
N           -1.20348282225344       -0.30272349708266        0.24241063095167
H           -4.46140623762326        4.05489091695246       -1.00564528496428
H           -3.15168619241523        4.17441842744053        0.20055541103597
H           -4.61076659663739        3.22663479983718        0.56768629243539
H            0.01231385764912       -2.42797893280756       -1.95842818461523
H           -2.78435585873261       -2.36401419799364       -0.60166860017196
H           -2.27503803374214       -2.59880627679094        1.07417827552568
H           -1.62450545489275       -3.63977221082015       -0.20858433864544
H            1.52940555752007       -3.21860828273975       -0.78305577718327
H            1.97402490209667       -3.50025938464785        0.90100839233767
H            0.42694396476426       -4.09074636290366        0.29501840044822
H            1.04239491509923       -2.00152176018910        2.73954860423470
H           -0.44231396277158       -1.08672952700171        2.39529010540171
H           -0.45366977805356       -2.86296142036331        2.37599146716691
H            0.87583733336582        0.01529896068941        0.12086968891935
H            3.01417205630856        3.65931108316580       -1.79664155263653
H            2.38390555085775        4.35551264823103       -0.30098517709010
H            4.11042035592442        4.49702879881766       -0.67784347402444
