20
 energy: -37.628754495248 gnorm: 0.000719128595 xtb: 6.5.1 (579679a)
C           -3.32897019258997        1.50458454223579       -0.54398055429235
O           -2.85731093794873        0.14806102740603       -0.38571575651452
C           -1.62394335116989       -0.13355605698453       -0.30784646151456
C           -1.23498634172839       -1.54293761583963       -0.15157375923499
O           -0.78343684269561        0.85992289788318       -0.37543470858920
C            0.56696270339108        0.81116720303223       -0.32412637498657
N            1.33059084826534        1.84269053330805       -0.41027902734448
N            2.60182438790794        1.36049183841960       -0.31555403186051
C            2.52270199844486        0.07575007601541       -0.17871688820997
C            3.61775385754726       -0.90319029403078       -0.04034734271409
O            1.23071672886225       -0.34259432974637       -0.17648490632434
H           -2.91099235038104        1.92262416860463       -1.45906337083892
H           -4.41292465723421        1.43353726618700       -0.59827031725126
H           -3.01166907335154        2.09294838341453        0.31720694413393
H           -0.64334034077412       -1.66103364553629        0.75780955280684
H           -2.12363706579785       -2.16895758724361       -0.11276886328307
H           -0.59674568102022       -1.83802482655245       -0.98659757053714
H            3.56726353502399       -1.63039138580017       -0.85079035962876
H            4.57503718917113       -0.38739348175917       -0.06707798206334
H            3.51510558607846       -1.44369971301391        0.90057477824761
