42
 energy: -83.581057815942 gnorm: 0.000969953105 xtb: 6.5.1 (579679a)
C           -4.20130655101444       -0.96331271295217       -1.23560039079775
O           -4.01400397590974        0.44517807549666       -1.34734548473037
C           -3.80840034515907        1.14184918012045       -0.16669058575331
O           -4.85496844250823        1.97817476681687        0.20504044651175
C           -5.95434801191427        2.06859985213880       -0.66984958962834
C           -2.65106802207135        1.03444549017382        0.57583054524914
N           -1.70759144206595        0.13861987767963        0.05467418706254
C           -0.59372288596342       -0.04843738776905        0.67974906320561
C            0.41811181411998       -1.05817452400811        0.15948618633428
C            0.22306015466609       -1.26584961568354       -1.34930448636311
C            0.19011425271623       -2.37573705246447        0.91923678998713
N            1.75216813852370       -0.52647214661066        0.45251343862590
C            2.90132364936817       -1.20305176907340       -0.01366690792900
O            2.91960510668985       -2.43249428763148       -0.25229475027129
C            4.01475116802594       -0.32353209361230       -0.10678783843723
N            4.00399850557883        0.99916522904467        0.12216782966052
N            5.28059165897580        1.44048606559562       -0.10215907719831
C            5.99000332201163        0.41688210487541       -0.44613821978210
C            7.43355562946165        0.40507643423296       -0.79435040222873
O            5.28273525495504       -0.73969188769247       -0.47962811046675
N           -0.29241303373691        0.58427924208236        1.84408966024561
C           -1.13679749742107        1.51595010434535        2.47330520106879
O           -0.72478004755668        2.03142322758277        3.54672381281745
C           -2.39652822418980        1.77607464272449        1.81161043698450
O           -3.23340752463196        2.60910446474274        2.29433377452549
H           -5.03051586367082       -1.20401412933129       -0.56009038115209
H           -4.43571122521149       -1.33207447767380       -2.23520355314200
H           -3.28688622631757       -1.44998133016581       -0.87382235103640
H           -6.48869044541071        1.11358904554956       -0.75192469793628
H           -5.65308925142264        2.38382080650070       -1.67687182911435
H           -6.63239669145654        2.81555603894214       -0.25251502101535
H            0.42297106068334       -0.33774453866887       -1.88505636927677
H           -0.80645353510039       -1.56487059069269       -1.54354711499103
H            0.89334606441460       -2.04133060680401       -1.71671755286393
H            0.38753239857119       -2.22958374377811        1.98115224989928
H           -0.84578308814149       -2.68984690621063        0.79269932975066
H            0.84335083310964       -3.16078689633294        0.54314144366247
H            1.81944033134290        0.47353449005386        0.27984351429796
H            7.57149606163635        0.11867431810316       -1.83769111716254
H            7.85393092592312        1.39591767940231       -0.63839160798445
H            7.96864117832044       -0.31556187435045       -0.17535653496160
H            0.57813182178415        0.37614743530103        2.30861706433394
