47
 energy: -80.168676414265 gnorm: 0.000155251099 xtb: 6.5.1 (579679a)
C           -3.69083652764922       -0.91982829588664       -2.35922586263885
N           -2.41954227486147       -0.59874912877318       -1.71480965692747
C           -1.33718957863567       -1.30086690112472       -2.19985628091096
O           -1.43816168985652       -2.05464104344040       -3.22045071385614
C           -0.19355020165789       -1.26137368604812       -1.35594877634043
O            0.69529292371875       -2.30285388268399       -1.52280894204678
C           -0.10397000509749       -0.33474711674613       -0.32021201600018
C            0.72635714156112       -0.36088900309093        0.85163139366078
O            0.61532027927133        0.43879143215898        1.80025022803753
N            1.67815286698976       -1.38005438478721        0.91702860309989
C            2.77386303189925       -1.22473666454469        1.86538360597077
C            3.82094017809159       -0.27616022520858        1.31969605739236
C            3.69866420344758        1.09853034905002        1.51776872823928
C            4.63086366184530        1.97703590985308        0.98447175255990
C            5.67884113538213        1.45396908979701        0.24881385020749
F            6.58926375154903        2.29968065685106       -0.27229626988781
C            5.83370653186108        0.09755445925517        0.03109575113689
C            4.89155157599980       -0.76594440588016        0.57434471872799
N           -0.98090192985021        0.81392845919083       -0.45604850092991
C           -0.50718530054591        1.75526710729659       -1.49241158319794
C           -2.31855148239500        0.35593618766374       -0.72391017744940
C           -3.29034393349323        0.37045940966033        0.44762760653475
C           -2.78426081181091        1.34247487261946        1.52701500120447
C           -3.46703213584777       -1.03265045921364        1.06171257783872
N           -4.61596538938922        0.81956902464366       -0.02093974034105
H           -4.50529565263267       -0.38683996120287       -1.87333951952097
H           -3.86869709251480       -1.99667559172013       -2.30782500755631
H           -3.63961081492835       -0.62985653331572       -3.41236603022652
H            0.39080178026265       -2.79718743353331       -2.30639108414719
H            1.96678518155193       -1.78225076566486        0.03481432578073
H            3.21345106706948       -2.21036406240855        2.04421240047270
H            2.36605231715430       -0.84343552390471        2.80734957642499
H            2.86544717084631        1.48544032343243        2.09495349563049
H            4.55084990723444        3.04606833718674        1.13412558516731
H            6.67148000852001       -0.27201595600219       -0.54520066631675
H            4.99913286241796       -1.83338132368391        0.41840242189196
H            0.47637068264436        2.13016830632361       -1.20431816060041
H           -0.43434135641216        1.28367739624722       -2.48162853684358
H           -1.21141197465105        2.58646213346788       -1.54397775293101
H           -3.49693334210977        1.38668281533496        2.35053417542877
H           -1.81459110141400        1.02161679059583        1.91117061877200
H           -2.67542577281133        2.34183746860450        1.10565414227278
H           -3.90010130296521       -1.71458907571921        0.33032427094792
H           -2.50055566672382       -1.42438143299501        1.38023239556764
H           -4.13022890013573       -0.98705654404392        1.92619253194548
H           -4.54339194263141        1.77680931850229       -0.34141954511178
H           -5.26511007828605        0.80956655388920        0.75372000887741
