21
 energy: -31.463971548357 gnorm: 0.000508430326 xtb: 6.5.1 (579679a)
C           -0.51980636505057        1.81226357356832       -1.08407550285972
C           -0.19594664224575        0.29208580255121       -0.91863707400198
C           -1.45036620158651       -0.53781626619731       -1.10324009365776
C           -2.08804945226295       -1.04540735630067       -0.01894414870817
F           -3.28541781377461       -1.69226354203502       -0.23617941182875
C           -1.60760444184106       -1.04037416718709        1.29502013661366
C           -0.28814190000700       -0.55602029425278        1.45557816935176
C            0.42750312239219        0.01752873192790        0.44398323369512
C            1.88310115095504        0.37937149346804        0.62919853267033
N            2.79648026032218       -0.74355881218348        0.30818075222199
H           -0.96161290977409        1.99736399644346       -2.06450680939276
H           -1.22709342223366        2.13045789081573       -0.31688509062817
H            0.38734930354192        2.41132430794604       -0.99196450384832
H            0.52989081077526        0.05065287731984       -1.71934419785327
H           -1.85626842036216       -0.64638987108191       -2.10237771772358
H           -2.16103882759029       -1.49311530939556        2.10619592774377
H            0.18472597130450       -0.67692462597332        2.43137049281697
H            2.17162761317640        1.22274737232998       -0.01251691419245
H            2.08394995891280        0.67247237637528        1.66940012640618
H            2.63958598809094       -1.01828984124132       -0.65469424448637
H            2.53713321725756       -1.53610633689741        0.88443833766153
