20
 energy: -38.328720060518 gnorm: 0.000792771261 xtb: 6.5.1 (579679a)
C            3.28860855167866        0.85524148278390       -0.11787494468896
O            2.23822619477703       -0.02719233608094       -0.48957139453112
C            1.05393499701630        0.13150254727171        0.18090167688698
O            0.94574161571272        0.93608916760864        1.09823315973803
C           -0.08803808473274       -0.58761373988059       -0.52736041388833
C            0.26236223935431       -1.96316692247671       -1.09798869100321
N           -0.28905422373702        0.45150081903723       -1.53642994934246
N           -1.49551225347772        1.02705624780306       -1.22072721797660
C           -2.02566394579150        0.42379136141234       -0.22649271955745
C           -3.33830708784449        0.70383027554470        0.41676132765904
O           -1.25635459115332       -0.63474257161031        0.27318561877450
H            3.04240200106711        1.89020684721081       -0.38220083395296
H            4.17973890530549        0.54018929161887       -0.66099248042942
H            3.47721115002271        0.80131583373085        0.95994549355426
H           -0.58690810466707       -2.33798477233541       -1.66649236058626
H            0.49012920367350       -2.66111033797678       -0.29398928136532
H            1.12307969498119       -1.87544884829556       -1.75718527615998
H           -3.98637664141379       -0.17376404084743        0.37304836552930
H           -3.82425803062449        1.52849598120474       -0.10165530562720
H           -3.21096159014617        0.97180271427703        1.46784622696724
