42
 energy: -82.940512319466 gnorm: 0.000597193003 xtb: 6.5.1 (579679a)
C            6.28118852707404        1.11911870144139       -0.35086020484352
O            4.97245582786435        0.55354202577706       -0.26618644456087
C            4.72094573908170       -0.47836419421698       -1.08794649679230
O            5.55010695898420       -0.91438743864111       -1.85501589353897
C            3.33646476876720       -0.98752726866205       -0.92990974613858
N            2.57568915833218       -0.34952619586446       -0.01577057367280
C            1.34475190753412       -0.71232492221939        0.19912063835516
C            0.54535357821822       -0.01486492289822        1.27275200986082
C            1.13329526612776        1.37050872904326        1.55908862633864
C            0.57981405665861       -0.90499760635678        2.52733880484959
N           -0.83567635772408        0.12494070936717        0.79656726855962
C           -1.82468152306153        0.64176203794602        1.55737629584579
O           -1.73417091876690        0.97831992681544        2.72475392661138
C           -3.09955095619758        0.76894655255200        0.80665868691545
N           -4.23338074218669        1.29515254643281        1.29626061685936
N           -5.12609275690749        1.26895545996043        0.37660361310035
C           -4.56590703219190        0.68757944963021       -0.81410147989604
C           -4.57365257376686        1.69925093068797       -1.96240352026750
C           -5.30199694829039       -0.60703186913414       -1.16814828656692
O           -3.21570427459988        0.38748389186409       -0.44447852686981
N            0.77637555759428       -1.75980630972975       -0.45426188220578
C            1.42070962306545       -2.51166874176750       -1.42602291277354
O            0.83954142807344       -3.42779564579370       -1.97100276620277
C            2.85068668310077       -2.09645377630155       -1.71210267555274
O            3.49871832781166       -2.70672585146494       -2.55761141102940
H            7.03451805207890        0.37181734318866       -0.08807583639028
H            6.31030406312718        1.94638535667924        0.35520275522833
H            6.47165583772454        1.48089145452415       -1.36475885930764
H            2.17622572061884        1.26373640614079        1.85292468539521
H            1.07904963255390        1.98811788171615        0.66438985705397
H            0.57939639669028        1.85111677125828        2.36282090036425
H            0.07696192255872       -1.84844338871677        2.32440698119127
H            0.08608867691117       -0.40558970899624        3.35789550873647
H            1.61631387750850       -1.10229217138066        2.79640870778006
H           -1.02570262807765       -0.02321342734259       -0.18077882688711
H           -4.04303998010328        2.59822307057151       -1.65601014849092
H           -5.60235187943490        1.94761183703085       -2.21122108518152
H           -4.08015027625407        1.26265161777330       -2.82733846178363
H           -5.24042194226140       -1.29623036362288       -0.32863407509989
H           -6.34354751148224       -0.37769388728566       -1.37941292446333
H           -4.83792574145804       -1.05525065203637       -2.04305097225630
H           -0.17265654529595       -2.02592435796896       -0.24730287227439
