43
 energy: -83.844387845188 gnorm: 0.000438855604 xtb: 6.5.1 (579679a)
C           -5.60735189258502        2.20937843012733       -1.02763302411592
O           -4.49219143011425        1.40467657077427       -0.65902088157543
C           -4.72487376876206        0.48279295976581        0.30342926546907
O           -5.83873164339113        0.36793915022563        0.82519279648471
C           -3.57610974703231       -0.32985647882719        0.64762674187666
N           -2.39153799358380       -0.08297950930713       -0.01571258858030
C           -1.36272961442572       -0.80764097538784        0.26324528087041
C           -0.05054780849139       -0.60901205885204       -0.46327782816094
C           -0.00317004820802       -1.59909230718961       -1.63512227439935
C            0.06566502750676        0.83699312390473       -0.96322736983067
N            1.01629330874082       -0.92600178209934        0.51436845505435
C            2.35143552461358       -0.75987513672543        0.04743543539872
O            2.82751122579218       -1.79284442915023       -0.75173313244858
C            3.76107359598325       -1.44155229941856       -1.75970055151502
C            3.08041938916354        0.28511720564560        0.54704270675646
N            2.56960097019741        1.24898916893001        1.34824058186278
N            3.60824459272501        2.10776612194292        1.61422245314420
C            4.65098758374332        1.67148968147472        0.99891712066532
C            6.00987779713167        2.27030335515497        0.98168905050674
O            4.41697585990040        0.51928163314028        0.29583165784564
N           -1.39827691365734       -1.81190193211104        1.18803608137746
C           -2.52422766120374       -2.14444872151621        1.94156338174595
O           -2.45979929688081       -3.05398285517341        2.77260063798720
C           -3.66675448056031       -1.33286733375485        1.61800447195414
O           -4.81631396283566       -1.59089282061664        2.28784457281520
H           -5.26443697909106        2.88757569501665       -1.80757141459686
H           -6.42139689910624        1.58497631022613       -1.40719394451573
H           -5.96952992060490        2.78086216607997       -0.16795914960027
H           -0.90771443410363       -1.50101377870177       -2.23487525308222
H            0.06728514706276       -2.61886253939436       -1.25819723513316
H            0.85740510006375       -1.39928782421659       -2.26990632502461
H            0.12248304143048        1.52184184601488       -0.11644986648808
H            0.96377439362907        0.95211658185942       -1.56831930305643
H           -0.80643335629370        1.08834318638768       -1.56551805270093
H            0.90355669246652       -0.28675704659966        1.30537012589555
H            3.82196546626500       -2.28779082344301       -2.44689314644117
H            4.75410416939935       -1.25256053117950       -1.33606462257626
H            3.43500825900544       -0.55085836510585       -2.31052779782466
H            6.74122487147604        1.57255291921400        1.39131652499638
H            6.30894411483685        2.50784377786081       -0.03959734300747
H            6.01174931580195        3.18098397242191        1.57638107727625
H           -0.54655909921951       -2.32661362253295        1.36854009836131
H           -5.51689849679382       -0.97512968486773        1.96760158633317
