42
 energy: -82.976184823602 gnorm: 0.000626240260 xtb: 6.5.1 (579679a)
C            2.98095875619029        4.47961959540493       -1.04098218196634
O            3.24700524859827        3.28253620060705       -0.31977531220017
C            2.23416792520851        2.38993264532710       -0.26575194655359
O            1.16073062885717        2.61431413564876       -0.81272165878743
C            2.52963077697148        1.17384491434134        0.47850887605507
N            1.45829379100829        0.30165877895162        0.49388989051143
C            1.52972050930027       -0.82686251875971        1.09534621159589
C            0.32359936283911       -1.74893699230136        1.06406110872528
C           -0.20524159138476       -2.02249760240262        2.47572859693755
C            0.64816977242999       -3.04682353182076        0.31672890553123
N           -0.67212911769465       -0.97604025415674        0.30928954601747
C           -1.88268218530814       -1.31460510360616       -0.01274533117478
O           -2.33637047181587       -2.48697679945555        0.33947250201159
C           -3.65640878560572       -2.94153156063718        0.00837140595412
C           -2.67353630835627       -0.35481705691103       -0.75329505821029
N           -3.89350202794547       -0.45098814124734       -1.20736080887413
N           -4.17523932111067        0.71374228650037       -1.82290063893988
C           -3.11388332295110        1.46886621385975       -1.71620045514209
C           -2.93258138185144        2.84054442464339       -2.22826727968505
O           -2.13635443603280        0.84496880047622       -1.05174853404008
N            2.66076325216259       -1.23447562617638        1.75707070237159
C            3.80479957132125       -0.46792747477006        1.83291261339912
O            4.77448431064353       -0.89264939199433        2.44823156393918
C            3.75692383553266        0.87200305745614        1.12433630720611
O            4.76625028541786        1.59332288334405        1.15681838139931
H            2.15298109239547        5.02802537226909       -0.58241984300459
H            2.72161184481103        4.25318163776256       -2.07925928510794
H            3.88838930878119        5.08163334946690       -1.00765834981012
H           -1.07663656011721       -2.67157086227668        2.43645183044032
H           -0.47833137709144       -1.08585640567941        2.95901735180592
H            0.57002140438236       -2.51340385584648        3.06061980816967
H            1.45217582475709       -3.56540362083504        0.83530316951742
H           -0.22232827648761       -3.69701392295984        0.28369288105115
H            0.96582202873049       -2.82182111626372       -0.69995462644006
H           -0.29258782163461       -0.05199524303119        0.02317883749188
H           -3.73645782800789       -3.93863251610063        0.43692728262970
H           -3.77890710639341       -2.97719230373533       -1.07524696940420
H           -4.40317839962924       -2.27471866023158        0.44186985291724
H           -3.84138342223649        3.16613846009515       -2.72846721332460
H           -2.09657762652088        2.86823377771691       -2.92822565942981
H           -2.70325879152318        3.51649159899550       -1.40396065361687
H            2.68107762934712       -2.12631657167772        2.22224318000381
