42
 energy: -82.908875434303 gnorm: 0.000557540537 xtb: 6.5.1 (579679a)
C            4.68683232806740        0.22224639338718       -3.42903760032893
O            4.50814503438112        0.40420483505285       -2.02128076247490
C            3.24526959190200        0.25984281947998       -1.56647761741032
O            2.32614239460124       -0.00352973904476       -2.31558666543228
C            3.10451405631746        0.44448218302599       -0.10816008264012
N            1.81942400657590        0.24568776425568        0.32936242490852
C            1.59250355732797        0.37403653525168        1.61697754738316
C            0.16270142545168        0.13025163561321        2.08605012922882
C           -0.38254163684226        1.38377464732855        2.77794823429324
C            0.12569224883086       -1.07999988849321        3.02609516346157
N           -0.61566027617107       -0.15505994301033        0.87590032218685
C           -1.91397467897562       -0.39284275185601        0.83273733027209
O           -2.70362739196869       -0.43467520941370        1.76493440969719
C           -2.36894126831180       -0.62584734719758       -0.57995170249591
N           -1.68421627144240       -0.66537400574711       -1.65813850351642
N           -2.52755592473480       -0.90286279819978       -2.71051919265479
C           -3.72127365695889       -1.00656240118799       -2.27127422305635
C           -4.96845821225584       -1.25212709047054       -3.01175845517908
O           -3.71703084431831       -0.83828966724634       -0.88052267310343
C           -4.82386156413301       -0.89130528033764        0.07310022513573
N            2.46254636503794        0.68594716681941        2.56359990424314
C            3.76541676920832        0.91536223045087        2.22379835064644
O            4.62177072823349        1.22051790955181        3.06435587149158
C            4.09231356518458        0.77326731350860        0.78913990130059
O            5.38967198818503        0.99045564552729        0.47284253606240
H            4.41029807687459       -0.79608891447028       -3.71374224529335
H            4.06612188276766        0.93191560942032       -3.98163432793455
H            5.73899169653360        0.39883336990722       -3.64045111905899
H            0.29054991294584        1.65285760211907        3.59200193049051
H           -1.37725720758538        1.20041464516550        3.17926115567338
H           -0.43277995973470        2.20952862696340        2.06939529505425
H           -0.88034049162666       -1.23546008357229        3.41098975678220
H            0.44464933774529       -1.97566364464761        2.49425068614993
H            0.80619085200866       -0.89796580141271        3.85799854442615
H           -0.05497241170937       -0.14637036332621        0.01785872210387
H           -4.72700183327369       -1.36965822174902       -4.06664348355015
H           -5.45939676195250       -2.15479572129688       -2.64842515003819
H           -5.65620292491259       -0.41519944005112       -2.88827883530896
H           -5.72701706408544       -1.05468301082474       -0.50523216910602
H           -4.84835784542504        0.06161396972214        0.59752862257205
H           -4.62723204002571       -1.71454047075252        0.75700559166114
H            5.55795744826399        0.88752089176663       -0.47601784665482
