42
 energy: -82.958049691801 gnorm: 0.000341218397 xtb: 6.5.1 (579679a)
C            4.89428986253311       -1.54417308100068        2.08792585475563
O            3.87114566468668       -0.82669099222692        1.40467340157771
C            4.01751777012410        0.52665861507214        1.37198619758351
O            4.96055058577606        1.06860582119541        1.91722475719310
C            2.93910781862526        1.17826933386716        0.63168908611215
N            2.00348352812026        0.32845165173847        0.10173266379857
C            0.99140644173455        0.77729417284586       -0.55607227689777
C           -0.00433540241279       -0.21384262411287       -1.09362695376080
C            0.72337917082427       -1.38192326963057       -1.75559490743818
C           -1.03909823338473        0.37324787269023       -2.04467977189396
N           -0.81965326329491       -0.80008384609057        0.09784627687500
C           -0.02837641019541       -1.64441242315184        1.03537888163147
C           -1.45648900181399        0.30730119568915        0.88039929790354
O           -0.76924574035454        0.99737875960184        1.57468984683865
C           -2.87823612343461        0.39182154025127        0.67472990517923
N           -3.72224350864068        1.22825243401757        1.22197314524132
N           -4.93820819470272        0.92953639672798        0.73701199943050
C           -4.79213959755684       -0.07441428708386       -0.08512632526793
C           -5.83571850111204       -0.75844922165761       -0.86990944374914
O           -3.51255490730476       -0.45968118245487       -0.16700788408285
N            0.81221118139802        2.12383492914256       -0.77775857357379
C            1.67600831645396        3.09301135701679       -0.31725966174052
O            1.45219539978371        4.26988860118164       -0.56673860003512
C            2.86182679874952        2.59360290194475        0.48280097576695
O            3.66316313640266        3.41754914424308        0.94074031936037
H            4.94390628431793       -1.23897509637639        3.13775712494487
H            5.86684434663163       -1.36794069052733        1.61768937772665
H            4.63669127198756       -2.59957284612051        2.02082145260867
H            1.12558608499882       -1.04013075320287       -2.70840878771882
H            1.55054604766456       -1.72041919246424       -1.13308940777409
H            0.03890897504045       -2.20620341308550       -1.94179652445578
H           -1.72397805757525       -0.40835481360591       -2.36826936754303
H           -1.62034468162502        1.16172624738434       -1.57071107476580
H           -0.53669539031668        0.77709997852510       -2.92216789153206
H           -1.55357596366697       -1.37682947734688       -0.31003991920508
H            0.89122666661353       -1.11882498378175        1.29425043558088
H           -0.63896249360050       -1.82017115774157        1.91710722448408
H            0.18861859941846       -2.58481596648374        0.54045191738234
H           -6.81018842358081       -0.33458405675319       -0.63899166641954
H           -5.62832903522207       -0.64585282283872       -1.93429685973754
H           -5.83024361277821       -1.82417597723840       -0.64236342896771
H            0.03000259069451        2.44699122184549       -1.31920181541372
