21
 energy: -30.830608892699 gnorm: 0.000390713927 xtb: 6.5.1 (579679a)
C            2.30542866206350        0.05987202897778        0.93617555411371
N            2.07479665160248        0.30181176900382       -0.50781304192546
C            1.00191313965655       -0.56719425403456       -1.09205844866630
C           -0.32777671367595       -0.26618671814636       -0.45264303243401
C           -0.96873212172414        0.94274829091742       -0.72294175619443
C           -2.19324554638998        1.23391354478859       -0.14187820454536
C           -2.75997067156703        0.29372619312037        0.70210460397399
F           -3.94057098732447        0.56599369506614        1.26419176534805
C           -2.15160235792667       -0.91635000292883        0.98676747825298
C           -0.92344379978367       -1.19105345127484        0.40287216034350
H            2.62068577665950       -0.97198208844825        1.06795816260426
H            1.37723779809514        0.24661036459825        1.47058757002380
H            3.08233663095507        0.74297771255587        1.26921665251977
H            2.93765013724027        0.12682445720165       -1.01326668099046
H            1.82807700642466        1.27864580842164       -0.64855556319955
H            0.98975298561878       -0.35070425881234       -2.16194605791955
H            1.30583255440688       -1.60188715946528       -0.92988338655918
H           -0.50731499939415        1.65764037251650       -1.39272087008025
H           -2.69873333124504        2.17025170047314       -0.33985787048687
H           -2.62596964464334       -1.62526197615447        1.65316887039303
H           -0.42635016904833       -2.13039602837633        0.61214809542843
