46
 energy: -86.305151544220 gnorm: 0.000912450529 xtb: 6.5.1 (579679a)
C           -2.36048328361051        4.28066812875105        1.20081006178571
O           -2.40282158382962        2.87653758435700        0.88210057785923
C           -1.37836819128989        2.37049711626083        0.24794984178190
O           -0.38607932922461        2.94948363245959       -0.09966640582155
C           -1.54829500956300        0.88095974468369       -0.03767940450469
C           -2.68891933231856        0.30211504826734       -0.80144342428128
O           -3.79075086887201        1.13764883682446       -0.78248039790716
C           -3.00198623332461       -1.06750829544989       -0.20283361179986
C           -2.24449611854825       -0.00413364572555       -2.26436395752816
O           -4.08324443607769       -1.56875633579193       -0.22645944998331
N           -1.85947419284227       -1.81793706833633        0.24002538544410
C           -2.20328610795732       -3.19385344594611        0.61172527145190
C           -0.65941431437984       -1.24929651078327        0.26810347879842
C            0.66634270049478       -1.95863066531854        0.35353615108453
C            0.92506023106576       -2.40090107034597        1.81098378005957
C            0.76040931375458       -3.12332207905950       -0.64341544949041
N            1.67457001376868       -0.96675103742017       -0.00390880550132
C            3.01040238449761       -1.20318186674914        0.03007066090940
O            3.52666377339581       -2.28091078329995        0.25891879507947
C            3.79132754474156        0.02021925552027       -0.25792317393277
N            5.07959836046600        0.15170136461170       -0.31904482360808
N            5.32915132197980        1.46404227895012       -0.57613472806420
C            4.17782976649195        2.05755105333566       -0.65398328463990
C            3.90736722186112        3.48695704558940       -0.91636786589006
O            3.16268990228739        1.19913302690120       -0.46189212176612
N           -0.59502810213378        0.10056429997256        0.32539583327873
H           -2.03587668386979        4.84676388476675        0.32627065435281
H           -3.37224959860339        4.55644371514180        1.49022316488371
H           -1.66614637960164        4.44354109185304        2.02671105310860
H           -4.59170073498002        0.66864281292802       -1.05753942758394
H           -3.03666634055468       -0.56139535030969       -2.75938952507243
H           -1.32396271173012       -0.58199705096668       -2.27247804948528
H           -2.09632984087316        0.94503430919397       -2.77552561083475
H           -2.49293724342202       -3.73124087129658       -0.29041244341274
H           -3.05513119251972       -3.14414252224591        1.28966459489495
H           -1.36873210017659       -3.67830643970357        1.10037671524025
H            0.16846170488035       -3.10043789375257        2.15288161888327
H            0.92589692627352       -1.52624096209096        2.45866429920560
H            1.89918868841634       -2.88581762814665        1.85312285451210
H            0.06589889019917       -3.91930943729901       -0.39554647744793
H            0.54827093661266       -2.75989619548372       -1.64715976990075
H            1.77272297616733       -3.52420262189183       -0.61336156483885
H            1.35591326668015       -0.01849751536004       -0.14693793376343
H            3.29800475281101        3.58903433485154       -1.81411080911499
H            3.35145949533911        3.91701428312998       -0.08333479577420
H            4.84514775810504        4.02211344441608       -1.04660648068185
