46
 energy: -87.016353986131 gnorm: 0.000526507085 xtb: 6.5.1 (579679a)
C           -4.61265809646458        2.99416755256092       -0.29340534998170
O           -3.64048601646047        2.01989122126333        0.05841006601721
C           -3.90161839508787        0.74707324846561       -0.37079503096905
O           -4.93406712624848        0.50317118199665       -1.01309623566492
C           -2.93297548594651       -0.22375415440075        0.01682978450283
C           -2.99110557489572       -1.55252541548732       -0.40043852125599
O           -4.01537968605823       -2.01611400606481       -1.17140349437660
C           -1.87503930732654       -2.43628106622402       -0.18588522133111
O           -1.89209499891826       -3.68925138135251       -0.30739480328298
N           -0.69886745489342       -1.75257274967338        0.08162511746861
C            0.54693446398337       -2.51172441156840       -0.00052008420206
C           -0.63426315777432       -0.42009174074395        0.47106286584807
C            0.23214617557502        0.54127175576885       -0.33692154036041
C           -0.02644517824769        1.98405692866415        0.11879540859897
C           -0.01141651793161        0.43151319844734       -1.85329953291766
N            1.66675932977995        0.24280531328341       -0.12624447702914
C            2.24830167457339        0.22744057005295        1.08386249598818
O            1.67790536679260        0.35975525106094        2.15859785885816
C            3.72009023736015        0.00682422022505        1.01243163517032
N            4.55549640126246       -0.07199190209653        2.00283832006416
N            5.79174006897020       -0.28008758460137        1.46069490407486
C            5.63331997008469       -0.31694926273846        0.17567535714444
C            6.67044176647278       -0.51937022183845       -0.85980407389957
O            4.34786374136726       -0.14316981108422       -0.17630548529044
N           -1.87879198113446        0.13950242047221        0.93014360387733
C           -2.17995109340838       -0.26759285929704        2.31906825078157
H           -4.69400232300217        3.08577212289234       -1.38146571652982
H           -4.28446438833607        3.94246812297482        0.13139870792206
H           -5.59408318488277        2.72731825857548        0.11194328739447
H           -4.65328996284954       -1.27990743031937       -1.31185925273947
H            1.10978688438824       -2.39910103052775        0.92766956097883
H            1.16037708153206       -2.15556605685725       -0.82927434466976
H            0.31201223330953       -3.56577341043429       -0.15729617836744
H            0.65290566667043        2.66448726728266       -0.39316447005397
H           -1.05346713099481        2.26281885870211       -0.11409212699050
H            0.12222788521771        2.07338856084300        1.19439615479055
H            0.61133669738923        1.14543592323494       -2.39113209261000
H           -1.05766751002214        0.64647219902940       -2.06753355366079
H            0.22106218556156       -0.57078178905848       -2.20954243845736
H            2.25950494736379        0.21129194992323       -0.93777959028412
H            7.64904125686318       -0.58035471621453       -0.39036061494237
H            6.47334613227134       -1.43879683316091       -1.41074130395046
H            6.65465863032718        0.30734201747216       -1.56904623113091
H           -2.35522311593817       -1.34811047335658        2.40378491938854
H           -1.32977952200914        0.00996320558222        2.94366997187216
H           -3.07011758828884        0.26563395831960        2.65590249422553
