21
 energy: -30.761382815031 gnorm: 0.000863532021 xtb: 6.5.1 (579679a)
C           -2.58509810016522        0.26298344511376        0.69353995312242
C           -1.78018721250029       -0.17751198645270       -0.57274472237613
F           -2.71050027674056       -0.37974927616952       -1.55216825887035
C           -1.09211775426059       -1.43117093830134       -0.19930387583798
C            0.19952539810797       -1.40452611533993        0.21578011217532
C            0.97247963251129       -0.21513320614591        0.13583052780567
C            2.39270675261781       -0.22659473268960        0.56862386861169
N            3.23261043872793        0.59311305311994       -0.27635813948429
C            0.40889878346672        0.94010022956408       -0.46634696721096
C           -0.88189165921139        0.95547941567579       -0.88421830539761
H           -3.13670408078377        1.16613353092150        0.44301654566639
H           -3.27936494344454       -0.53518082798343        0.94566514183891
H           -1.91575793969313        0.45306449664082        1.52723408843037
H           -1.68158379766770       -2.34030023815824       -0.18791754349186
H            0.67614177286262       -2.30991243703943        0.57404319238130
H            2.45974472152012        0.14868622904532        1.59470981332820
H            2.76699517221640       -1.25585775279666        0.58532273451708
H            2.92256633090409        0.58467943735511       -1.23586891317632
H            3.31117440530608        1.54031841834454        0.05767049889509
H            1.04022287446874        1.80748055932613       -0.61467734088936
H           -1.31985951824246        1.82389769596980       -1.36142941003766
