42
 energy: -83.599883863596 gnorm: 0.000549406116 xtb: 6.5.1 (579679a)
C           -6.47856848945633        0.60226054036698       -0.06941767628212
O           -5.12660484986950        1.03170924197811        0.03755523749726
C           -4.18600127194825        0.04126254678618       -0.04944273908976
O           -4.54628596188073       -1.11486365914894       -0.21085660590122
C           -2.78739097965911        0.48947645330885        0.06355285874661
C           -2.36833658455544        1.81167633286664        0.13240510414919
O           -3.20713666680305        2.91335246913824        0.19926394686230
C           -0.92206380328737        2.13009007816338       -0.03128762665164
O           -0.55714777195760        3.32460543779894       -0.22449781791460
N           -0.06399656525765        1.11794025922716       -0.00959509106527
C           -0.53280042908395       -0.21407393252489        0.30031771258901
C           -0.23845471227953       -0.48249636038591        1.80864042008165
C            0.33282698728090       -1.19426156730688       -0.58560347987648
C            0.07856143481271       -2.65711481211781       -0.21784883957825
C           -0.03966964194733       -0.94981112236718       -2.05577182670683
N            1.72360496895515       -0.80001425714208       -0.38152220462074
C            2.82072703873601       -1.54837880314751       -0.58960717756030
O            2.82464752249801       -2.73058136154703       -0.96866202397867
C            4.07894073291301       -0.84441135577550       -0.30390300004936
N            5.29973246274672       -1.29963282349019       -0.48057964827587
N            6.15087274956639       -0.29733475503413       -0.10244421128064
C            5.41640000128297        0.69889430395082        0.27670733422975
C            5.87858321731807        2.01517177207666        0.77705177588601
O            4.09858543985014        0.43302259267223        0.17721919054798
N           -1.91762562151862       -0.54315199972083        0.04855507632973
H           -6.64599703819742        0.08636929290091       -1.02015710249734
H           -7.10515997276292        1.49075408434593       -0.01740117953273
H           -6.73177720565659       -0.07693224065070        0.75048226086832
H           -4.13290444422636        2.64907673428874        0.27224628159392
H           -0.71997938575344        0.29334250916640        2.40304332195357
H            0.83451763348280       -0.45290361148352        1.99736449853727
H           -0.63684710602852       -1.44924475416889        2.11327491419190
H           -0.99714244765073       -2.79710619128039       -0.09552423594758
H            0.42928384380073       -3.33080417369736       -0.99927677691039
H            0.57767065896309       -2.92350965031628        0.71282585867118
H            0.55014819695466       -1.58277947030376       -2.71870578268467
H           -1.09841780814310       -1.17240106657988       -2.19575595155347
H            0.13792304053454        0.09572428907811       -2.31127889354959
H            1.82840630284896        0.19690033462781       -0.19051050786625
H            6.96468662404521        2.02521434835651        0.81476368292234
H            5.48072022273763        2.20138496981293        1.77453465683969
H            5.53347167859825        2.81357837727192        0.11975626686349
