16
 energy: -33.374526673641 gnorm: 0.000721808341 xtb: 6.5.1 (579679a)
C            2.35709576458623       -0.24904602580192       -0.12101858454955
C            1.13386990042472        0.46614424281672        0.26633146007259
N            1.01352666709235        1.58540088967653        0.87915177356695
N           -0.30672114410687        1.87207731769874        1.02837468746322
C           -0.99961703588118        0.92877134507144        0.50705474407641
C           -2.47100976580268        0.76812034365388        0.40791306532753
O           -2.98012452954671       -0.17677688267704       -0.11891595474778
Cl          -3.33064302517493        2.05267404791273        1.11296360807094
O           -0.13499227890052       -0.04039144509734       -0.01858188475328
C           -0.51008959310947       -1.27868300592586       -0.70912252360733
H            2.37142184861218       -1.24772095527963        0.31676799867114
H            2.40965638645901       -0.35262091128457       -1.20575175589765
H            3.21788163347187        0.31679117001539        0.23231690186033
H           -1.11128835916290       -1.86487597685981       -0.01825128537905
H            0.41635590326133       -1.78246665114481       -0.96431083147321
H           -1.07532137222232       -0.99739850277446       -1.59492241870130
