42
 energy: -82.971564549769 gnorm: 0.000713863216 xtb: 6.5.1 (579679a)
C            5.84965136014867       -0.50733919480569        2.20246630548243
O            4.70227524518664       -0.54871492552508        1.36225471003050
C            4.65474126598647       -1.58523602432287        0.47546696141214
O            5.55209602246599       -2.40906701291787        0.43549207814394
C            3.45646997628439       -1.55312330175283       -0.35303511735457
N            2.58731301778224       -0.51363864519866       -0.09307550317481
C            1.50555232280821       -0.38681186265095       -0.76390874932293
C            0.55743777079668        0.75988928739907       -0.48935575832445
C            0.52409322912395        1.71261272488339       -1.69003468273955
C            0.96495313738892        1.47833800413775        0.79730916098359
N           -0.78683998191207        0.15558867785028       -0.30539545004768
C           -1.91148805262533        0.78932713651015       -0.09102156285502
O           -1.91156913342295        2.08594927944998       -0.01452770833935
C           -3.09875809315967        2.86350831729766        0.20908982380335
C           -3.07737852093013       -0.05140590008696        0.04803280223895
N           -3.04209907421691       -1.35628500902730       -0.00067191895003
N           -4.30488768619701       -1.78848552822949        0.16827477262070
C           -5.05448680443023       -0.72984659166518        0.31144731258869
C           -6.51405496783963       -0.67583550647282        0.51612011192600
O           -4.33118868488482        0.39669213877900        0.24549960065664
N            1.15530754439128       -1.26310741712048       -1.77419790514505
C            1.92473495572810       -2.34529084184178       -2.14010942593161
O            1.54852839183736       -3.07513340512887       -3.04883487980130
C            3.20731680976941       -2.53128042506171       -1.35556467269805
O            3.93747242365083       -3.49419164980117       -1.63307857140117
H            5.92091286139067       -1.41830422769947        2.80552973905090
H            5.73362965440339        0.35793706695089        2.85343230954335
H            6.76191288377254       -0.40307615410242        1.60605928821726
H           -0.08796233518284        2.58519986855974       -1.47891207335296
H            1.54015638461036        2.04053161842367       -1.90567140811060
H            0.12167143464534        1.20201797152234       -2.56262537056845
H            0.89871921407956        0.79385884521804        1.64162996629766
H            0.32534669919332        2.33749579796247        0.97933754790444
H            1.99680501234265        1.81274150775175        0.69629910176609
H           -0.85447874890166       -0.85686173762494       -0.34414058648645
H           -3.80625871297493        2.70701312331223       -0.60513828477242
H           -2.76471263852297        3.89908907423732        0.23046196156704
H           -3.55300422019752        2.58833825703733        1.16091125949538
H           -6.74483090140528       -0.04306442156106        1.37291969746765
H           -6.99151864130252       -0.23737006449605       -0.36120534714413
H           -6.90204773331224       -1.67944516328031        0.67703619020311
H            0.31046531363021       -1.11321368691707       -2.29640272487086
