43
 energy: -83.843415990314 gnorm: 0.000239729222 xtb: 6.5.1 (579679a)
C           -4.06076173895207       -0.80635313578570       -1.82541971552212
O           -3.89778263910274        0.60146589775510       -1.70070351309484
C           -3.62786322260051        1.08916678554406       -0.42238519681108
O           -4.63923071583336        1.89911650948067        0.10149500034342
C           -5.93307195925098        1.31123688696611        0.16220551676411
C           -2.45556789589939        0.84798927768137        0.23989962638570
N           -1.52364875836459        0.05415918364275       -0.45738434146606
C           -0.41359789496826       -0.25698840378135        0.10890797756018
C            0.53148683159845       -1.20265169440893       -0.62024553291185
C            0.41286329633754       -1.01991195014013       -2.13673068168406
C            0.15859601185965       -2.63665688052598       -0.22668564360204
N            1.91225488448772       -0.97867324683112       -0.18665586229388
C            2.59842049064615        0.16597689919895       -0.42947241295167
O            2.12176647924207        1.18907082059151       -0.90056917434529
C            4.01172252702086        0.02494311434180       -0.01982962784429
N            4.55289115928021       -1.03815003393643        0.51201303456254
N            5.86692798454219       -0.74347755435372        0.72863039242157
C            6.04787718721045        0.47320387671806        0.31692542487121
C            7.30919035772104        1.24805224284665        0.33663254751329
O            4.91814750620385        1.01767270302739       -0.16549558225786
N           -0.06452108907496        0.13586404788095        1.35308834466808
C           -0.88962730265007        0.98946179658707        2.15693838604821
O           -0.44191521909800        1.31015653597002        3.28394643240039
C           -2.08947184954469        1.33008516666949        1.54401641729285
O           -2.95746074304154        2.16134737228579        2.26958004555163
H           -4.79735718989943       -1.19117248038537       -1.11047705763328
H           -3.10691774914558       -1.32606485759174       -1.66790532880284
H           -4.41179159137821       -0.99934626398884       -2.84083888373506
H           -5.93159395112598        0.41260695466616        0.79152859971969
H           -6.29040572725818        1.04767620929360       -0.83920276408739
H           -6.60343374622092        2.05461867465081        0.59517182293101
H            0.65176089051494        0.00487806357683       -2.41877221083870
H           -0.60996990587994       -1.23674871790061       -2.44139886248360
H            1.09112873637436       -1.70031160418527       -2.64798676291815
H            0.79952372957718       -3.35078617925662       -0.74088184622463
H            0.26723774945029       -2.77256486425487        0.84849269990305
H           -0.87698787371157       -2.83035405446725       -0.50270554104925
H            2.44241509954841       -1.78474005708173        0.10176197008543
H            7.20013668808205        2.12897551872749        0.96944942889350
H            8.11188741117055        0.62360829427294        0.72095515761047
H            7.55874380995328        1.58357037444295       -0.66958309143795
H            0.79343877370744       -0.19008718852793        1.76518249440610
H           -3.73544084152820        2.36013696058756        1.72492431406823
