43
 energy: -83.120423875456 gnorm: 0.000666998215 xtb: 6.5.1 (579679a)
C            4.09316261418919        3.76875412888911        0.26948589792560
O            3.83110652787273        2.35445747339694        0.28676614436553
C            2.57219192819657        1.97808232450218        0.31045299806534
O            1.62019773318446        2.71273228917837        0.32484964263785
C            2.41410819149798        0.46623777813589        0.31326183458214
C            3.43909796341534       -0.45789946371634        0.02850031150658
O            4.64848476902430       -0.12787614951065       -0.26170349435163
C            3.15541288053679       -1.91882874879032        0.07229416097240
O            4.04121476283648       -2.72055243802643       -0.13505354319502
N            1.87531956528251       -2.22455165361003        0.38303147920930
C            0.82932916391184       -1.27591737181180        0.57120284730781
C           -0.00036178707205       -1.61804435517688        1.81023141950093
C           -0.16345548206327       -1.33485337915131       -0.80460348032804
C           -0.55407301923395       -2.78375024923523       -1.04598602453033
C            0.64106468865488       -0.79303680157036       -1.97889603037396
N           -1.24997548696294       -0.47137066132618       -0.54531723168909
C           -2.45682319838239       -0.80739911512846        0.02527361945924
O           -2.79410642945499       -1.92860608850990        0.33038546921589
C           -3.27750093619483        0.40151889045106        0.21146348480062
N           -2.90891316779817        1.62239365420466       -0.05064375421809
N           -3.94171386305388        2.42618361193720        0.29740031104635
C           -4.88247254861738        1.64893478936171        0.75558623061550
C           -6.21283507120617        2.04511788376836        1.26229287497748
O           -4.51805425907019        0.36141031462164        0.72595116909381
N            1.20570713808115        0.04502347275418        0.59852896107157
H            5.17215668012050        3.87678129383614        0.18587453474038
H            3.73014356522200        4.22090032916245        1.19449726041113
H            3.59088927685234        4.22471595289002       -0.58574012308239
H            5.20199798263882       -0.92440228735693       -0.43044589133247
H            1.65884231054433       -3.20567435701355        0.48893505045811
H           -0.48150020889007       -2.58694743579968        1.71100195571848
H            0.67435338250057       -1.63807758207239        2.66429808967186
H           -0.74942060990426       -0.84590553940701        1.96662152627636
H           -1.37127060425463       -2.79892527427674       -1.76726465064369
H            0.29544606899783       -3.32106756445073       -1.46265142570006
H           -0.89070882502743       -3.29386798961515       -0.14791377570503
H            1.59917633056956       -1.30209526419915       -2.05891348920698
H            0.07573721726632       -0.98034589229145       -2.89156097958005
H            0.80932782962725        0.27795613087644       -1.88456585612695
H           -1.07923380514005        0.51918241131497       -0.68230077030146
H           -6.34538679117254        1.67998658422172        2.28068891968274
H           -6.99224990279953        1.60114820250199        0.64237859649211
H           -6.30441157472458        3.12847614604362        1.24467773055379
