12
 energy: -30.096539738939 gnorm: 0.000540666685 xtb: 6.5.1 (579679a)
C           -2.23589859938050        0.13992994188775       -0.19636194420529
C           -0.85323641244145       -0.22848503176585        0.16992880536280
N           -0.46818654774885       -1.17229512528513        0.98137284793571
N            0.88236909244818       -1.14380820805880        1.00348922725438
C            1.25336330651611       -0.18329294215998        0.20334587049443
C            2.62908252637848        0.22213877398660       -0.09379317794117
O            3.59424605072794       -0.29679551057567        0.38744332182872
Cl           2.74783178562218        1.52689895419426       -1.21768302701213
O            0.18743009831507        0.42978422618051       -0.35146798205350
H           -2.41143641172992       -0.08457005526100       -1.24881369293748
H           -2.94006209311027       -0.41883838421026        0.41505948484202
H           -2.38550279559697        1.20933136106759       -0.05251973356851
