46
 energy: -86.338506262523 gnorm: 0.000576311855 xtb: 6.5.1 (579679a)
C            3.93665565476960        3.83221318548619        0.71013868591085
O            3.73627792668883        2.52003735274264        0.14275175625742
C            2.51786295296415        2.01354477583868        0.26225858319730
O            1.59703457716292        2.59857768249970        0.77072797228169
C            2.41612279738690        0.64738099336956       -0.35657392626223
C            3.23936631840225        0.21955396475820       -1.35866929413363
O            4.27670677957151        0.86987731082382       -1.85558159847699
C            3.02367795626456       -1.09107584584446       -1.97774989694828
O            3.77014511213847       -1.60832128060483       -2.77190425127620
N            1.83586135529931       -1.73993096495576       -1.57596542070759
C            1.72564089716316       -3.08277167190028       -2.16683834944717
C            0.96321086264783       -1.23205091284700       -0.68707643058919
C           -0.45828194261158       -1.79813974792648       -0.54712633659896
C           -1.04542210485857       -2.24037214152941       -1.90457035470474
C           -0.50704888681757       -2.94270612753593        0.47775827598705
N           -1.29242270611058       -0.66700654060143       -0.13501432902827
C           -2.52703677975356       -0.79939857079110        0.43808456269925
O           -2.99366409462422       -1.81938487145064        0.89476195216102
C           -3.20578053580388        0.51552064166950        0.46351633814679
N           -2.73815288268497        1.62433153983350       -0.02919363510745
N           -3.67335955011030        2.58232296391075        0.20599185853824
C           -4.65538916663274        1.99797963716821        0.82821571670300
C           -5.91297774887404        2.60928609324358        1.30999953760114
O           -4.41673361458489        0.69270946179975        1.01763267478361
N            1.32957619962031       -0.15286186441927        0.01026581019809
C            0.72147000526929        0.14205522693128        1.32365440253168
H            5.00177675359104        4.03511832194808        0.63809480399886
H            3.36100827939349        4.56583478182382        0.14378427599829
H            3.61077300700866        3.82943226585058        1.75127528805974
H            4.45812328857640        1.71925050008404       -1.41312836178681
H            1.33900670160478       -3.00854576371488       -3.18110704635639
H            1.10071249701872       -3.71491355877957       -1.55065703904078
H            2.73281132254655       -3.49855717456005       -2.20026218514505
H           -2.13042835238838       -2.18535751542999       -1.82454238235427
H           -0.78979976129457       -3.26544121625738       -2.15345055440385
H           -0.72175413236779       -1.57492139465858       -2.70182020995192
H           -1.39213787078350       -3.55144967118493        0.30398293025024
H            0.37696103943380       -3.56916353034369        0.38211068406869
H           -0.54917805593499       -2.55668766680876        1.49350984997119
H           -1.14706475193575        0.18667780614094       -0.65737872869436
H           -6.76827332264729        2.08894326942667        0.87898178479869
H           -5.97575183690197        2.51959988974368        2.39479057412645
H           -5.94185377876207        3.65928307388006        1.02911829913064
H            0.26283869322635       -0.75808458962287        1.71364361002566
H           -0.01409830805188        0.93814081898561        1.23590852463379
H            1.52299020678317        0.44947006381081        1.99110157895076
