42
 energy: -82.955999090183 gnorm: 0.000402956468 xtb: 6.5.1 (579679a)
C            6.14031093692222        2.62033255283146       -0.79343836654278
C            4.83662723731363        1.94076165211535       -0.62502494917513
N            3.65665124039853        2.40776903958677       -0.89834691877308
N            2.76643728948728        1.42776001458089       -0.57235964975430
C            3.46008106505175        0.42697455951547       -0.12088400682194
C            2.92242136018708       -0.87953246047684        0.34575978389380
O            3.63109816794122       -1.80260369128004        0.71283293782357
N            1.57985104087049       -0.89046983198768        0.29522595757204
C            0.75086862451115       -2.03307164321293        0.66643267576602
C            0.98367291285930       -2.38414961190181        2.14346959348519
C            1.08126734168275       -3.22251010002104       -0.24644648701046
C           -0.68721151722966       -1.59505133597489        0.46566132683961
N           -0.95362641607141       -0.40101072022582        0.09676344005610
C           -2.27649072953167        0.00876447921089       -0.07643157278713
C           -2.34113398217442        1.32651119684136       -0.53351175977164
O           -1.54096647917836        2.16880068263331       -0.80761809940173
O           -3.84659675770966        1.78384547385145       -0.80264994891445
C           -3.91396032157834        2.69771925585420       -1.91604103269201
C           -4.48985784474580        2.28514635173914        0.39069404279401
C           -3.38255196727936       -0.86537912606131        0.17939115160385
O           -4.57296554076291       -0.55795896333625        0.11025600051364
C           -3.01231631282212       -2.28270036930315        0.58217492353175
O           -3.82966090310483       -3.15923763850003        0.79570309323518
N           -1.66955127411630       -2.53105013628931        0.70374968311965
O            4.77903776641391        0.69461571235236       -0.13208867736671
H            6.79926628558599        2.01585601048601       -1.41609073871022
H            5.98924593234030        3.59266124131872       -1.25546474984996
H            6.62002199242522        2.74985954944606        0.17679683108340
H            1.08410952478740       -0.06033357046108       -0.01601242248617
H            0.78226136257333       -1.51474800022136        2.76746037387088
H            0.32173334252013       -3.19520035899458        2.43939349973524
H            2.01480129958139       -2.70039116851958        2.29131727504153
H            0.44449428780851       -4.06950980243307       -0.00115947662083
H            0.92349665584380       -2.94722596561761       -1.28823744122456
H            2.12032997202523       -3.51569717987153       -0.10713121587879
H           -4.96474497582280        2.91479930310105       -2.09325660060240
H           -3.36344326158097        3.61165972126050       -1.68696446539409
H           -3.47721770086735        2.18958112220488       -2.77354755737157
H           -4.31833540498781        1.55717759464515        1.18009103638723
H           -4.07563708133327        3.25838792356259        0.65774914173336
H           -5.55408226019540        2.36034272620620        0.17496188218409
H           -1.41773190802235       -3.46572348865608        0.98681948690618
