16
 energy: -34.150518145476 gnorm: 0.000759958115 xtb: 6.5.1 (579679a)
C            2.74324499188674       -0.17582109859188       -0.14514528756625
C            1.27103314699473        0.03611083835093       -0.10246282463101
N            0.51598191692955        0.12865474776378       -1.12601536478190
N           -0.82505155414583        0.32568051807327       -0.64596566603308
C           -1.61578835273245       -0.82861957344770       -1.10448281790713
C           -0.69035997129851        0.38799988439865        0.79951088306389
C           -1.43147876011455        1.10678747032708        1.66842118495257
O           -1.39532018578495        1.35330579773954        2.86571089362003
Cl          -3.13548024856075        1.52610755068066        0.80980971468690
O            0.67990855893527        0.13992336405722        1.09849233835237
H            3.00091231756994       -1.08647985637854        0.39435542400075
H            3.25716005079335        0.65757197210157        0.33314088812277
H            3.07306586059982       -0.26076484763974       -1.17740852670697
H           -2.64146122909876       -0.69036099931829       -0.76790628193889
H           -1.58646226037705       -0.85282133949359       -2.19254377129918
H           -1.21990428159643       -1.76727342862300       -0.70751078593489
