20
 energy: -38.343688735956 gnorm: 0.000692963190 xtb: 6.5.1 (579679a)
C           -1.49894729576804        2.09680530629066       -0.04168239327043
O           -1.79022714110432        0.80612109228322        0.43690756534798
C           -1.44588040216032       -0.30385550836631       -0.51702272540331
C           -2.31051196696059       -1.48814535536186        0.02257617224629
O           -1.58690769701628       -0.02467018047381       -1.76535677558239
C            0.04816548532757       -0.67530715026777       -0.16325254642426
N            0.54144127431909       -1.87269485013142       -0.08062642031307
N            1.90620704436967       -1.73734291735447        0.09624444490179
C            2.14294400475692       -0.46902027129415        0.10266581728027
C            3.45536350005931        0.20337638707258        0.26312904030869
O            1.02091731246603        0.25858107451194       -0.05928088719583
H           -0.43211043037127        2.34553436392548        0.07121392770721
H           -1.76845259403399        2.20508708935290       -1.10340855397266
H           -2.08409437638316        2.81487648854807        0.54125565809958
H           -2.16392543882357       -1.62035545188515        1.09279574827859
H           -3.35650761834143       -1.26485047846998       -0.17746828626632
H           -2.02889825538024       -2.39954579113912       -0.50173046195890
H            3.65657691441230        0.84818486890978       -0.59218377580587
H            4.23899927485259       -0.54533534213894        0.34329736030802
H            3.45584740577971        0.82255662598834        1.15923509171450
