47
 energy: -80.222630086806 gnorm: 0.000371212159 xtb: 6.5.1 (579679a)
C           -4.15870843209118       -1.23394210712017       -0.42202942304207
N           -2.79514453085150       -0.75146336562539       -0.64610572033737
C           -2.01836281594485       -1.50566612446776       -1.52232643893426
O           -2.52926623591171       -2.37295318313125       -2.27053589825756
C           -0.64182225549874       -1.16981162148226       -1.59503825401376
O            0.09961698117674       -1.88839119550281       -2.55244804295577
C           -0.13219090491958       -0.09226439002392       -0.87571195839422
C            1.23597116147579        0.48962420451081       -1.07439916545229
O            1.57090448436997        1.57336210200312       -0.59397976098181
N            2.10214702851196       -0.22676253927512       -1.83865156812339
C            3.49798163927110        0.17256705745299       -1.93245363432123
C            4.28589438965106       -0.39202758057914       -0.76818765142301
C            4.31460600922468        0.28319036649816        0.45086418434260
C            5.00080500257821       -0.24447759769074        1.53532770262300
C            5.64957320826506       -1.45550966725396        1.37426819282977
F            6.31689726384376       -1.97532084924348        2.42131628372966
C            5.64395797827396       -2.15250477113478        0.18028814161615
C            4.95236325285559       -1.60851013409230       -0.89391733397191
N           -0.84752785408350        0.54165164191188        0.03969363048943
C           -2.12105923792063       -0.01797769051602        0.44877484190327
C           -1.84144720726547       -0.99188422132594        1.62800092406381
C           -2.97134781481085        1.21917856244907        0.90552213395404
C           -3.23261100798630        2.10978675542232       -0.31591455449173
C           -2.19661512165950        2.03358431978584        1.95845637772410
N           -4.26133682816433        0.81953803647092        1.47466735705662
H           -4.88158874429925       -0.42382625921203       -0.53227628508530
H           -4.27381202969753       -1.66492025453730        0.57577333335446
H           -4.38404452894233       -2.00378684961503       -1.16378608711142
H           -0.52509917864065       -2.53355811901287       -2.92894444307701
H            1.89425750289187       -1.18239389791798       -2.08697263432770
H            3.54536731994940        1.26661443749025       -1.92824187391284
H            3.89939882523582       -0.19798158208378       -2.87907428589894
H            3.79635464651657        1.23091910415065        0.55216359815047
H            5.03653777059580        0.27010912392402        2.48683284177521
H            6.16897267866739       -3.09440995218379        0.09398630744791
H            4.94012109036610       -2.13724896653215       -1.84006981379989
H           -1.35722660050049       -1.89004594013769        1.24439558588755
H           -1.16824295832611       -0.51498320569815        2.33797274729610
H           -2.75294429858879       -1.28056712106909        2.14638878637877
H           -2.28188356725657        2.39535358152002       -0.76924460296745
H           -3.76646843269010        3.01303824970006       -0.02092821807593
H           -3.82974761410153        1.58241841879851       -1.06009594367135
H           -1.19893435625446        2.27896608001793        1.59146312494459
H           -2.10339761491167        1.47301731459111        2.88792516453967
H           -2.73312689599252        2.95767369308559        2.17381705302624
H           -4.82801189920554        1.64441465941081        1.61696949156367
H           -4.11976126720935        0.40387147727468        2.38646878793741
