21
 energy: -30.769490248318 gnorm: 0.000395461132 xtb: 6.5.1 (579679a)
C           -0.06116089334962       -2.12877714996201        0.09967634471840
C            0.26637900259243       -0.75549225224381        0.76237132341322
C            1.72947728898466       -0.65931818353012        0.94124520790419
C            2.42208950455828        0.38605619036243        0.42309874223238
F            3.73930656320098        0.44851636047482        0.57474282944513
C            1.79319919828007        1.43504039349571       -0.27069013890327
C            0.42076958547637        1.41600803884486       -0.44588304116781
C           -0.36179427970515        0.38232216306511        0.05001526381672
C           -1.83846881621675        0.42964290780786       -0.09798124712239
N           -2.26220335024891        1.41536116992713       -1.06600249736930
H            0.40240942854138       -2.92414979271424        0.67939681702415
H           -1.13712943695486       -2.27920682883958        0.08518656236538
H            0.32697229242416       -2.14397374238647       -0.91583106814254
H           -0.19182725365135       -0.82533374845289        1.76215905769720
H            2.23185922266025       -1.45846395708779        1.47224689533372
H            2.39368483229253        2.25362081718280       -0.65040881557001
H           -0.06783538098970        2.23448032123318       -0.96313852102064
H           -2.25821930157240        0.69296918947586        0.88112513284089
H           -2.23234190304572       -0.56837629561846       -0.33724923808681
H           -3.25821144197326        1.55621963513400       -0.98345320095011
H           -2.05695386130359        1.09285276383181       -2.00062540845843
