42
 energy: -83.020337045862 gnorm: 0.000727230008 xtb: 6.5.1 (579679a)
C           -6.09889494617018       -1.05937692836692       -0.53932219824623
O           -4.84708689945425       -0.81345873164352        0.10728885899777
C           -3.85882183420651       -0.37036309162405       -0.66581778401874
O           -3.99001861353837       -0.17110829387427       -1.85312210030308
C           -2.56936034326982       -0.13815372749950        0.05492325737094
N           -1.59251816903578        0.33843959281352       -0.78073098826516
C           -0.41908561561392        0.59001463325632       -0.31629698888412
C            0.64626875619387        1.17341343656853       -1.21804204715645
C            0.73654132932864        2.67898212596490       -0.92175334429857
C            0.29242353116521        0.91554943824953       -2.68595158073560
N            1.91780907076972        0.52056677043330       -0.88655494754998
C            3.09014084445782        0.85679034893832       -1.46880440598806
O            3.24989351274347        1.76315127645096       -2.26813981077937
C            4.21499120082388       -0.00092764764104       -1.01859833126645
N            5.45614467203080        0.06442753695496       -1.38800441261642
N            6.11978714206541       -0.91628207331303       -0.71344418775839
C            5.24290123043307       -1.52033523327051        0.02625939791663
C            5.46410783656357       -2.65133179228954        0.95295825149463
O            4.01630541045016       -0.99102272881363       -0.12078170257495
N           -0.11971362793423        0.41384179476016        1.00236487006696
C           -1.00713242666769       -0.06346371411163        1.94508200283330
O           -0.64979663263476       -0.19052033521915        3.10687620749283
C           -2.33355253087804       -0.36180114070247        1.39413835836850
O           -3.31867186996659       -0.83721754350582        2.16670366175717
C           -3.14363915309918       -1.15908164677509        3.54691362006810
H           -5.98585147545718       -1.84690331928733       -1.28788404327850
H           -6.45679520641512       -0.14852690483447       -1.02481991102324
H           -6.79386221226701       -1.37290749386467        0.23660899608615
H            1.45471168206709        3.15264356158972       -1.58788763043195
H           -0.24116732944073        3.13449377051147       -1.07108817372121
H            1.04809304895937        2.83492189065927        0.10918802551251
H            1.03712880841655        1.37239923511013       -3.33484112532766
H           -0.68483688298638        1.34496067493728       -2.90174311396315
H            0.25710009619362       -0.15595410807904       -2.87609364706091
H            1.89250493931670       -0.30873071183045       -0.31792772165303
H            6.48876613492063       -3.00458133789594        0.86203845219831
H            4.77205218751450       -3.46076162887248        0.72374320603455
H            5.27987197008310       -2.33116607185037        1.97870929245828
H            0.80172869781112        0.63427488327887        1.34823136596333
H           -2.36292968703755       -1.91125164497338        3.67981093801596
H           -2.90314747637262       -0.26864627177617        4.13238253183476
H           -4.10238716986128       -1.56430484855954        3.87342990242782
