47
 energy: -79.535415400102 gnorm: 0.000788691415 xtb: 6.5.1 (579679a)
C           -2.95218026920179       -0.77587440761261        2.35972622468869
N           -3.89813346650360       -0.49581138111348        1.24989788595472
C           -3.27114591209194       -0.36996473899068       -0.12150494313665
C           -2.78517609443397       -1.76689117800838       -0.51978964610247
C           -4.37167991246516        0.06830250985861       -1.09229252514131
C           -2.09070113510612        0.59518453841493       -0.11583266693120
N           -1.02508814591209        0.12040748840647       -0.66625063110835
C            0.12291676585082        0.85107251785630       -0.80884491911907
C            1.23891943563240        0.08222578861417       -1.45958339403137
O            1.04594445609646       -1.03315297886839       -1.92583979946782
N            2.43188248355465        0.70106777462516       -1.50050149733728
C            3.61129566151738        0.01962033967517       -2.02891678007838
C            4.36819473200729       -0.68446341763280       -0.92226072388374
C            5.61815166626075       -0.22278493949263       -0.51798499008281
C            6.31129092629893       -0.85898983835116        0.50336564945316
C            5.72561331767483       -1.95570139857487        1.10845994950579
F            6.38700107534062       -2.57543573034364        2.09902518133209
C            4.48558089964645       -2.44101125904531        0.73241210365097
C            3.80953972523595       -1.79605105456895       -0.29256235919075
C            0.13465880904267        2.14114263106696       -0.36810342433093
O            1.18904327936655        2.96560494434464       -0.45977664842057
C           -1.04041970266143        2.71851130132213        0.26407324411762
O           -1.04137086742055        3.86667255388934        0.68827442483801
N           -2.15075988883147        1.88550440991231        0.35860870064690
C           -3.29640529123948        2.47838216876348        1.04775389354943
H           -2.54205117462821       -1.77361478308019        2.23285372293961
H           -3.51478507079639       -0.71416480374694        3.28725476518203
H           -2.16089134851835       -0.03154119033816        2.34482621241513
H           -4.58007632542163       -1.25042901706788        1.21281326932429
H           -4.42066289644744        0.34654446284796        1.47284038357882
H           -1.95818787250779       -2.08755071015087        0.10999178640886
H           -2.43905527376216       -1.74252662896859       -1.55220961412930
H           -3.60356307507096       -2.47920415038104       -0.43640466071555
H           -5.14150006048057       -0.70008253694226       -1.14143427010912
H           -3.93794094461477        0.19720631826854       -2.08341684827828
H           -4.83698252046334        1.00279350466719       -0.79179946975357
H            2.57745058512299        1.57394208239215       -1.02209911664576
H            3.27175921193163       -0.70353473680797       -2.77788722697273
H            4.24468499866316        0.76697045732436       -2.51286927975064
H            6.05904248060340        0.64005253997638       -1.00334977788258
H            7.28348199109276       -0.50949083617603        0.82584047517000
H            4.06086630064930       -3.30200780219924        1.23211412889359
H            2.83766160816020       -2.15924318312098       -0.60478154218416
H            0.95122260162245        3.82619626314451       -0.06301679291947
H           -4.22393914062537        2.20674929357249        0.55785579686435
H           -3.17846076925995        3.56160062025732        1.01371000170698
H           -3.30504585290582        2.15575619238170        2.08761374748219
