47
 energy: -79.546975776073 gnorm: 0.000258300398 xtb: 6.5.1 (579679a)
C            5.19444080386708       -0.39733180980562        1.93603603017783
C            4.56514110653696        0.54176506883386        0.94543188313727
C            5.27064156985411        1.65594469762938        0.50189189357947
C            4.68154131144922        2.51262466301320       -0.41000838253723
F            5.37473050806519        3.58002246775187       -0.82590850316341
C            3.40873403695714        2.30804506446888       -0.90700768001721
C            2.70853335876906        1.19449543422836       -0.46427732871788
C            3.27186748148087        0.31438095662391        0.45375288306509
C            2.51483017318639       -0.90584175527386        0.93893206307521
N            1.15503142592145       -0.94544354679301        0.42524956280271
C            0.63557668047269       -1.79597746387325       -0.41581010778555
O            1.28842005262669       -2.79357183413364       -0.95250874618258
C           -0.75716887026835       -1.62043591684488       -0.77519747477026
N           -1.33668501743934       -0.52645171776367       -0.19276842907397
C           -2.57593006723347       -0.21201374969021       -0.42627114815758
C           -3.10436218263345        1.00109725449505        0.32733108626907
C           -1.93018749789517        1.74269531500020        0.98532989969246
C           -4.07956145841078        0.53001709477525        1.41635299724514
N           -3.79201197693601        1.90218328462788       -0.59230167344281
N           -3.35143367835727       -0.97066325266780       -1.25487548386733
C           -4.75733513403995       -0.68052215050344       -1.56825538342656
C           -2.88506454308499       -2.12822475551420       -1.87089403687390
O           -3.61701470807597       -2.80389135954463       -2.57273961331077
C           -1.47656094157760       -2.44522468514344       -1.60740329705555
O           -1.02589630781688       -3.53901569862601       -2.21180949455909
H            4.59046527746715       -0.45490845505943        2.84275631930314
H            5.26256154762688       -1.40175965005523        1.51638243171746
H            6.19585941083129       -0.06253687751938        2.20473883564283
H            2.21157010790175       -2.91010541883310       -0.68305610713126
H            6.27148635391737        1.85734433106026        0.86302382785645
H            2.97443462047891        2.99625955567116       -1.61986882146331
H            1.71065893069915        1.01457036249247       -0.84305591924620
H            3.02918043280492       -1.82146001135267        0.64017119275721
H            2.44143519398862       -0.89891385285115        2.03092746518445
H            0.50412400850860       -0.23798890891848        0.76398417436566
H           -1.19777135270945        2.02680209154949        0.23213860439841
H           -1.44381453544532        1.10944146456262        1.72485941292187
H           -2.30094045642537        2.64118533192440        1.47597038493031
H           -3.58736182682184       -0.19363439855900        2.06480556275611
H           -4.96429778689219        0.06974842760700        0.98082606324229
H           -4.39008782641903        1.38492817817955        2.01530224013318
H           -4.18591626557593        2.66606863452189       -0.05918621218473
H           -3.11645540288547        2.29255983328881       -1.23506947748971
H           -4.90509620149937       -0.83763054069462       -2.63742007244252
H           -5.39408842580986       -1.37045051404656       -1.01402147016106
H           -4.98959487174669        0.34826937846603       -1.31188017906996
H           -0.09662905746019       -3.73644656669805       -2.01889477213246
