42
 energy: -82.932476019377 gnorm: 0.000210180508 xtb: 6.5.1 (579679a)
C           -6.90581639638968       -0.53610769285210       -1.56711315332318
O           -5.58626228340219       -0.87595590995709       -1.13340476395546
C           -4.73694895036810        0.13488943325877       -0.96189046223827
O           -5.03990273017354        1.29299615081174       -1.13905295919320
C           -3.37075526876150       -0.30765771689596       -0.54378947676092
N           -2.45949628073375        0.67998970733313       -0.46347767291073
C           -1.20397977268505        0.36863168739649       -0.13659266153071
C           -0.24153767527056        1.53982144132047       -0.08456047604729
C           -0.26122887206068        2.28297162091812       -1.42768373213459
C           -0.64925541335722        2.47314388535707        1.06484940851769
N            1.08890225691756        0.99042860864384        0.15813501950274
C            2.20464864782304        1.72209514256007        0.25034425271475
O            2.28679100587039        2.93870972730525        0.19379002320282
C            3.42145105535334        0.87402571786675        0.42421510391826
N            4.67854059630901        1.34607972237456        0.55311460142571
N            5.47691924895929        0.35174514585433        0.64308808827301
C            4.72786567279687       -0.87225741701127        0.56355146318655
C            4.88460554731931       -1.68806857190781        1.84812385401424
C            5.13459311718327       -1.66216137252723       -0.68351194371490
O            3.37452265220175       -0.43033771175147        0.42841879022591
N           -0.73225635175515       -0.82977617395723        0.13588033917338
C           -1.58705662926073       -1.89458846267274        0.10352158428670
O           -1.26221867764341       -3.05435898440207        0.36113809241364
C           -2.98674613464903       -1.60963877462310       -0.26763052994650
O           -3.79661267005076       -2.66082354934210       -0.29524795251335
H           -6.86390334128496       -0.04255023173426       -2.54111130219688
H           -7.45956707691676       -1.46973434314285       -1.64067441961316
H           -7.38029965266398        0.13146853875659       -0.84389149756263
H           -1.28649934137292        2.57053959095095       -1.65663197609926
H            0.36089413041241        3.17453503408225       -1.37660914670275
H            0.11143024257515        1.63138740224818       -2.21632589447027
H           -1.67894449464660        2.79299065257275        0.91073948697465
H           -0.00092303015613        3.34710057234744        1.08964372443332
H           -0.57726634473371        1.94579221554249        2.01462125483729
H            1.13147419290380       -0.02185270098835        0.23747466664328
H            5.92708642584113       -1.97436877931443        1.96102839443222
H            4.57527254115114       -1.08642013534975        2.69987969279463
H            4.26331388427261       -2.57812967231857        1.78483068021661
H            4.98732629697576       -1.04388399010497       -1.56640479605580
H            6.18185631238739       -1.94089640938213       -0.60102068546470
H            4.51943868926126       -2.55550378374933       -0.75654036881333
H           -3.26945412818777       -3.45427161352791       -0.06496564993172
