16
 energy: -34.208996279700 gnorm: 0.000784180968 xtb: 6.5.1 (579679a)
C            2.80903375429478       -0.60037028247386        0.25452603267458
C            1.64151987841654       -0.03801759820998       -0.45730795658690
N            1.64810198844113        0.78749131604122       -1.46171461550132
N            0.34966227297532        1.01030673291063       -1.79131634518959
C           -0.37584810992193        0.31205297311591       -0.96619871003516
C           -1.85342309588936        0.21179869038854       -0.91871286709762
C           -2.39390180532830       -0.50483078270133        0.27937574654085
O           -2.53867327553492        0.68372255914287       -1.79694121488485
Cl          -1.43664919916464        2.75513057689900        1.65544433487009
O            0.39852826805139       -0.37377872698097       -0.09649951962331
H            2.82742733567196       -0.24642278981021        1.28565800501101
H            2.74072386243100       -1.68715870129958        0.27432387763016
H            3.72447407361094       -0.29928254388186       -0.24817790558273
H           -2.20250065328521        0.11050271927511        1.16023529607302
H           -1.87600395097284       -1.45135320425590        0.41433405690675
H           -3.46247034379510       -0.66978993816259        0.17215978479434
