47
 energy: -80.192958903538 gnorm: 0.000563655025 xtb: 6.5.1 (579679a)
C            5.06679630928545        0.17135032580023       -1.40532061773081
C            3.92463405082822       -0.17408839402111       -0.40350776774012
C            4.31549473771142       -1.36847052576395        0.43789501580092
C            4.70453704435271       -1.19390390307511        1.72224807160680
F            5.14631825989881       -2.29357569607275        2.40963098140449
C            4.62827929785480        0.00737188574083        2.44166064803704
C            4.00066975011255        1.08326398823600        1.78386145085432
C            3.61434268530916        1.02799990518509        0.47359889058351
C            2.79557431168281        2.13828575198263       -0.13337229609931
N            1.37798066965743        1.97327839743544        0.24191423778879
C            0.52442336353837        1.26893516141720       -0.53299792891126
O            0.78661449697929        0.95870804639257       -1.69911913282358
C           -0.78894828456112        0.92064963398963        0.08157079597740
N           -1.54643399158500        0.05878882139537       -0.66994068095891
C           -2.72173219496552       -0.33123391632249       -0.30046716029710
C           -3.44566684923808       -1.27001068550510       -1.26089966460161
C           -4.37643577101784       -0.43786497783242       -2.15593842479697
C           -2.40892435805794       -1.98943086078955       -2.14096992991031
N           -4.23704463096760       -2.25908951883325       -0.53313391273408
N           -3.30891504878135        0.12120403194530        0.86099322385698
C           -4.64470285988540       -0.27140060743885        1.30296587881691
C           -2.62256105338087        0.99010129055802        1.70527160746946
O           -3.11393246391183        1.40164667562948        2.76570055935469
C           -1.31512537838249        1.38693941275451        1.26535707362421
O           -0.67170195558222        2.25515460934620        2.09416983035874
H            4.78102875558511        1.01358540672483       -2.03644987448808
H            5.27912506246631       -0.68809466585306       -2.04294435217875
H            5.97412708143243        0.43622359578412       -0.86089695472187
H            3.04247297127758       -0.42844914987772       -1.01764442211010
H            4.33646642515843       -2.34439705057830       -0.03120268239877
H            4.94747326112176        0.06789636107112        3.47207514505927
H            3.79826783122710        1.98743709949086        2.35537489065412
H            2.85051244613489        2.14185411391393       -1.22697000514628
H            3.11452650404668        3.12062313716961        0.23385623740029
H            1.18573120887765        2.07192259005920        1.22638912033274
H           -5.15348999028885        0.04864720162192       -1.56898468633976
H           -4.85333610514682       -1.08432840970175       -2.89121877874155
H           -3.80251930719798        0.32633664460921       -2.67988070732496
H           -2.92096744174858       -2.67839592411234       -2.81015986141865
H           -1.71512287300687       -2.55308845243705       -1.51792241180141
H           -1.84451060179103       -1.26896074929991       -2.73281938890761
H           -4.87844797593815       -2.70588381938880       -1.17149658507690
H           -3.63039596450715       -2.97841846538142       -0.16060990661856
H           -4.61711415061380       -1.27032516768076        1.73753652507126
H           -4.97722362429901        0.44364580358731        2.05611366736167
H           -5.33844088597571       -0.26627607249596        0.46766475173373
H           -1.26170376370960        2.43383512061939        2.84902153073452
