33
 energy: -57.811191149948 gnorm: 0.000850183950 xtb: 6.5.1 (579679a)
C           -4.25592092332591       -0.88018024837758        0.91212113780716
O           -3.19560825340967        0.04506787800155        0.53546753559428
C           -3.38754780270441        1.38818056805403        1.07052521123281
C           -1.81581794831147       -0.52858456440215        0.79323181953295
O           -1.74971258933574       -1.37196378935571        1.61702115606264
C           -0.80592727888570        0.03221863913763       -0.07319231446530
N            0.45694554291483       -0.40376861775808        0.26122012355151
C            1.47707757957020       -0.02538655052626       -0.43720733285624
C            2.85834882688631       -0.51777921275062       -0.02957053227356
C            3.06285231295036       -0.18963684458038        1.45614074475939
C            2.90593518785429       -2.03577277437424       -0.25801594935657
N            3.91890996127192        0.10257419459173       -0.79604675902332
N            1.35052863273493        0.78641447682207       -1.52650021433832
C            0.15248967153335        1.27156567110524       -1.97218802632223
O            0.02511726172414        1.98885075347567       -2.94681983927662
C           -0.99983225775483        0.85386088227969       -1.16012255244234
O           -2.17531856110644        1.31681999767556       -1.55608695300127
H           -4.06561602286753       -1.80744312985398        0.37660048190065
H           -5.18869081357672       -0.42654671549958        0.58852936484797
H           -4.24192508652618       -1.03584330037525        1.99088082552084
H           -3.49345596174089        1.33487333873285        2.15447869894298
H           -2.51889650324705        1.97545358555980        0.78778552131786
H           -4.28621200968128        1.78136968212770        0.60037368341194
H            4.03269787037829       -0.56426825809762        1.78038299107080
H            3.03048769536160        0.88829500395681        1.60701586622164
H            2.27661213837826       -0.65230104825238        2.05120561356225
H            2.12725001158407       -2.52548433809524        0.32517771693964
H            3.88033421231822       -2.41624866148746        0.04577496131075
H            2.75178434749227       -2.25977825737683       -1.31250815342078
H            3.89123169376391        1.10697579792826       -0.70697077924281
H            3.86123044257823       -0.14908638453497       -1.77132914289414
H            2.17610183570295        1.05912411972234       -2.04270735317302
H           -2.05545321251862        1.85842810653198       -2.36466855150222
