42
 energy: -82.916754030142 gnorm: 0.000502408034 xtb: 6.5.1 (579679a)
C            2.81621716740232        3.35236468324848        0.55846857038813
O            2.62737723418415        1.97353478235873        0.26836832731329
C            3.77457540206797        1.23363795041290        0.14469883669400
O            4.86547731846442        1.76056994771182        0.28432209607411
C            3.50016619623354       -0.15969741778039       -0.15932324862681
N            2.15925107551943       -0.48186816119425       -0.26078243928254
C            1.78710222223112       -1.67547168965076       -0.53944858892783
C            0.30735882313822       -1.99259052414091       -0.64286625563069
C           -0.07009379958985       -2.37350750096302       -2.07993091849533
C           -0.09676745436898       -3.09037191289561        0.34802188416908
N           -0.36077777605022       -0.73767312073022       -0.27987397983189
C           -1.67067686425250       -0.56171101803243       -0.20776687766799
O           -2.54995599602708       -1.37634112601949       -0.43834763746857
C           -2.00014714390579        0.83723878707649        0.22313584685742
N           -1.21659304720300        1.80710902104568        0.50298532392711
N           -1.96813545471814        2.89140818360584        0.86817335529849
C           -3.20449439755316        2.57909903385465        0.81155986212120
C           -4.38935750398940        3.39869372622729        1.10781306938706
O           -3.32399202870321        1.24618192196479        0.39609275375518
C           -4.52260822959265        0.43650718457467        0.17944870439090
N            2.68851936280361       -2.69052451342984       -0.75729922975421
C            4.05287257431140       -2.52090595219390       -0.68017461014199
O            4.79341767675544       -3.47612565248050       -0.88296950116416
C            4.52862305332887       -1.12190066081129       -0.34370972696365
O            5.74908366348834       -0.91395773411414       -0.25518965468449
H            3.39922176678191        3.83920969327446       -0.23035550231803
H            1.82591433599221        3.80213476120610        0.61445750977190
H            3.33492452823933        3.48003720516980        1.51435474878003
H            0.18262315534151       -1.56114833206911       -2.75990525317731
H            0.47418983129792       -3.26869279524869       -2.37488081174151
H           -1.13779005404320       -2.57305412107806       -2.14460052711175
H            0.44672216625496       -4.00604515070543        0.12336111262599
H            0.13263830325446       -2.77845275716611        1.36595547496106
H           -1.16326307829677       -3.28993607739276        0.26893355382226
H            0.28450319489980        0.03065216671639       -0.07002483673241
H           -4.05815259324026        4.38914971103765        1.41525715090678
H           -5.02364912055601        3.48514851944484        0.22528438554281
H           -4.97661250976096        2.94715056971175        1.90752022309647
H           -5.37316074843022        1.07142837710497        0.40433390908866
H           -4.51810842276864        0.12055604074422       -0.86149857528175
H           -4.46596656659810       -0.41648774804428        0.85215916861564
H            2.35952473765474       -3.61534930035137       -0.97892069258659
