42
 energy: -82.983904328183 gnorm: 0.000891161440 xtb: 6.5.1 (579679a)
C           -4.24767874964661        3.44718418681882       -0.49834765986700
O           -3.94666934506066        2.07105866507956       -0.23135012200453
C           -2.74683592405182        1.80432371715947        0.24845488487702
O           -1.89520779635523        2.62739521609804        0.46998792590382
C           -2.53390887395516        0.31938227424155        0.47590957268563
C           -3.68354408540432       -0.61005971161452        0.66878424882460
O           -4.77658503824488       -0.26079505455174        1.03396038776758
C           -3.34428604550498       -2.07953135819487        0.40816833518574
O           -4.19048578520134       -2.92062821069804        0.18447035064646
N           -2.02297310018896       -2.35374536152291        0.42995234715310
C           -0.95430188406522       -1.42859744618350        0.75184565384358
C           -0.61374785174939       -1.54831261476319        2.24624932027132
C            0.27372081498842       -1.71205762334067       -0.17368227835586
C            0.92089265901081       -3.06365195938711        0.13057824076145
C           -0.16619660354931       -1.62888965349659       -1.64034493486909
N            1.21993780804955       -0.63237577250038        0.10455886630533
C            2.43438912698390       -0.53076339073164       -0.47933054654468
O            2.96592686480579       -1.37723048504466       -1.17440490470860
C            3.06762128394661        0.77017042790379       -0.14113707916389
N            2.53153191144039        1.72535013112016        0.55731410738773
N            3.44493523646405        2.73458964873011        0.60884482622409
C            4.48033010596058        2.33116952455101       -0.06359643677521
C            5.73986709039248        3.06713832383927       -0.31011606817719
O            4.30209481529888        1.09938036813833       -0.56333141048292
N           -1.31969341038894       -0.06518406894712        0.52850274838894
H           -5.26903192198452        3.47301283991364       -0.87123076068808
H           -4.15864803433823        4.03213755734584        0.41952641482456
H           -3.55657324811555        3.83844612664782       -1.24774228388340
H           -1.77856264186690       -3.33084483406723        0.37692455544329
H           -1.46606591003254       -1.20900210005938        2.83223083817926
H           -0.40415406522747       -2.58589238930569        2.49211167797440
H            0.25347436915509       -0.93537520768019        2.48104866056040
H            0.17684208987793       -3.85656021991698        0.09780540464909
H            1.38910323549300       -3.05402045295000        1.11280939194270
H            1.68446686874804       -3.27976530526823       -0.61489296239893
H           -0.90062294276320       -2.40336897087136       -1.85309648929508
H           -0.60663685278865       -0.65308620706731       -1.84215542066823
H            0.69677101490573       -1.77201376716998       -2.28885680416625
H            0.83365414470022        0.20557573684415        0.52473893155487
H            6.59409828832064        2.43438314933439       -0.07192507433676
H            5.76416741610753        3.96629498849454        0.30133297359179
H            5.80858496583821        3.34475928307469       -1.36268442856126
