43
 energy: -83.852185337321 gnorm: 0.000625997111 xtb: 6.5.1 (579679a)
C            4.96435497698736        3.35140533689169        0.86026340652826
O            3.83320386579367        2.50754004931101        0.76422567941634
C            3.98238102750557        1.41805991755290       -0.09677191556164
O            5.07373318633622        1.28622540475271       -0.72723943649856
C            2.89269761651583        0.56786845327397       -0.19125407338610
C            2.95155456136279       -0.63521853355247       -1.02932559418555
O            4.13420588128980       -0.90657368354951       -1.66817674397561
C            1.87731315515035       -1.43528710779375       -1.10768548579688
O            1.70078326288904       -2.63315280945101       -1.78506983907504
C            2.66035974952300       -3.00636386607854       -2.75727499103018
N            0.65388448785239       -1.06908211135068       -0.45748954735030
C            0.74653774562715       -0.00718875568280        0.47131286084606
C           -0.49283271252638        0.21169258709226        1.32017538726248
C           -0.46627868586208        1.61886755950849        1.92682665973317
C           -0.55673457126454       -0.85540688243204        2.42562250673979
N           -1.65525106817163        0.06945924598205        0.43376341155479
C           -2.93719216079080        0.16815831079958        0.84127250790984
O           -3.30604462444023        0.46315724782769        1.97315046012992
C           -3.87095166760448       -0.11341372465779       -0.27051046537281
N           -3.54214450174788       -0.42580376425098       -1.49465949638911
N           -4.70905279403295       -0.60990979706920       -2.17969623788287
C           -5.67139528420492       -0.40050122753018       -1.33679117255050
C           -7.12762613944740       -0.47174023688975       -1.59439422374252
O           -5.21417373227932       -0.08172438995719       -0.11422143342597
N            1.74151711211826        0.77802648077392        0.57548626914994
H            4.71648745559505        4.14482637572057        1.56754531296407
H            5.21395566690330        3.79691777043514       -0.11071837605420
H            5.84104243741908        2.80243633021970        1.22582738751433
H            4.73758044168015       -0.12373917241813       -1.44360993224176
H            3.62306660546319       -3.26200228674339       -2.29867592501659
H            2.81741985209595       -2.21264222854472       -3.49780137249424
H            2.26283537365882       -3.89040258523789       -3.26158122648722
H            0.14670518767481       -1.87865620851222       -0.12509342429206
H            0.44596821745604        1.73831394390678        2.51047633055509
H           -0.47313025088454        2.36684512426533        1.13394543946135
H           -1.32706894459993        1.77446312609605        2.57423620467503
H           -0.64146624944759       -1.84714855874397        1.98412022732454
H           -1.41570065898196       -0.68457395336107        3.07252645694398
H            0.35236904794423       -0.81126748747303        3.02379460543379
H           -1.48161738748694       -0.24073078043517       -0.51367887910225
H           -7.30224754218138       -0.78427659679927       -2.62079192118048
H           -7.59461625754602       -1.18152942043958       -0.91222804118897
H           -7.58442968134093        0.50407090454915       -1.42941535986027
