16
 energy: -34.296284383935 gnorm: 0.000451818200 xtb: 6.5.1 (579679a)
C           -3.59835747980967       -0.20510436972214       -0.49150508824002
O           -2.21217563893104       -0.14716994365966       -0.85074049810203
C           -1.34612977000852       -0.03671328763555        0.15000030429989
O           -1.64871494318383        0.02484594186481        1.31572998001359
C            0.04724986873687       -0.00137561078841       -0.35717316602244
N            0.45527323915481       -0.06049515014808       -1.59020584525831
N            1.81057183650973        0.00593148918409       -1.55725600548021
C            2.15085272075689        0.10123041037450       -0.30550325062011
C            3.51533893638757        0.20097960275045        0.25458234200980
O            1.08235764061466        0.10225949295806        0.49996040768154
H           -3.78955172605747       -1.10023025718034        0.10394274244004
H           -3.87188296585518        0.68084993984083        0.08522428956625
H           -4.15750421316149       -0.24130782504020       -1.42368095306197
H            3.71091925839631       -0.64802411077500        0.90924013786862
H            4.24285408524202        0.21363218338710       -0.55294746953045
H            3.60889815120840        1.11069249458954        0.84708307243578
