42
 energy: -83.004086542227 gnorm: 0.000306488115 xtb: 6.5.1 (579679a)
C            5.87852396811204        0.11990667011476       -0.76212837723624
O            4.78331300941517        0.78439791482298       -0.11124621340540
C            3.58159458925844        0.28302575797247       -0.29573265016085
O            3.32232850302267       -0.67651847545854       -0.97194068999781
C            2.48939449098166        1.10844280161838        0.44703495789490
C            3.06195111974958        1.86462899635468        1.64547026966943
N            1.51581301829722        0.14059637482501        0.89479975989182
C            0.54554813925143       -0.19035724671363        0.15122057413112
C           -0.35863435818386       -1.33529378246932        0.55369587590306
C            0.06122634160878       -2.55547603896994       -0.28046735035027
C           -0.22887509203275       -1.61625840631727        2.05310983383330
N           -1.73549812602516       -0.94159053205246        0.23811179036187
C           -2.79201181515689       -1.77123626248989        0.40595084265939
O           -2.72551019757707       -2.95793897858175        0.67212563394822
C           -4.08891150915730       -1.07580825832408        0.21326493691937
N           -5.28099723045079       -1.57941973388562        0.29360954599948
N           -6.15561947649839       -0.55918585878169        0.06917341023513
C           -5.44414483160258        0.50585044441255       -0.13286550017600
C           -5.91951095415809        1.87635882190908       -0.42037847587064
O           -4.12788942499405        0.24801585594281       -0.05509174853676
N            0.27316523863228        0.39112441703699       -1.08161883606679
C            0.89447604265082        1.50775422433606       -1.55385515467097
O            0.60142389808884        2.02436090095601       -2.60748740201847
C            1.98075695163661        2.06018082577274       -0.62225402210289
O            2.42592286780523        3.16762328077277       -0.76990876013776
H            5.78322955688077        0.22801331676305       -1.84405034313368
H            5.87883228249936       -0.93878614637197       -0.49730185777814
H            6.78469153195489        0.60451978338317       -0.40695702567064
H            3.55471703804147        1.16747173651644        2.31883106065953
H            2.25013027323656        2.36002169957433        2.17476007562212
H            3.77730708011053        2.61131591839112        1.30649462962149
H            1.13061635220010       -2.72049886163211       -0.15314810748009
H           -0.47871125711984       -3.44176816514516        0.04621339685400
H           -0.14675388392576       -2.37791072152861       -1.33388577821567
H            0.80538062317302       -1.86189858083394        2.28806732119966
H           -0.52036436297234       -0.73519187668757        2.62182521635434
H           -0.86906642035965       -2.45183201103214        2.33008627606897
H           -1.92786231294930        0.04323452476915        0.15586058739012
H           -5.53348926934089        2.56755735758888        0.32822963700470
H           -7.00645036247823        1.89760623529350       -0.41287183547465
H           -5.55361105577309        2.19854523683543       -1.39511691437435
H           -0.48643097585400        0.02641684131431       -1.63649558936476
