42
 energy: -83.582972457446 gnorm: 0.000612645880 xtb: 6.5.1 (579679a)
C           -5.18011325957392       -2.15050931298632       -0.75747632410598
O           -4.01893130327432       -1.36313749650842       -0.59319676409740
C           -4.07820368848690       -0.09346027727934       -1.21585880252400
O           -5.12419433571125        0.21357383656980       -1.82622610410687
C           -2.91362243106379        0.68085602793766       -1.07076475383137
C           -2.80484411815210        2.04437850046268       -1.45428418352954
O           -3.74238603207019        2.62640252517293       -2.28891641418283
C           -1.78994041709568        2.88758284609272       -0.97964713548062
O           -1.69618678236148        4.10579274045472       -1.32782898020452
N           -0.89287124197281        2.33688187183611       -0.04368487455231
C           -0.87112912186884        1.06840132787495        0.18338599493798
C            0.16802050583129        0.58070215104109        1.20597004084332
C           -0.47227017069415       -0.40078654997395        2.19899188801986
C            0.70751450065895        1.79910092709802        1.97721697847116
N            1.26392396572761       -0.05474037810607        0.46058793589151
C            2.40262544991979       -0.52817264261462        1.14570580615091
O            2.37437195920140       -0.89620837327854        2.34125137201472
C            3.53422219499938       -0.58719333897937        0.28392617238641
N            3.57881135661045       -0.17348769613024       -0.99130436704680
N            4.86065996563315       -0.38280911737162       -1.42108924039600
C            5.52208740330911       -0.89288465390140       -0.43473542201979
C            6.95377741319642       -1.28551206536324       -0.42881406861937
O            4.77248757458284       -1.05937066295255        0.68315950250063
N           -1.75809111588688        0.16938848402351       -0.36784726536112
C           -1.32456503595549       -1.18387808286417       -0.72690388689836
H           -5.01311574114768       -3.09130941842097       -0.23032467517876
H           -6.06396041494106       -1.65430988095549       -0.33611812538050
H           -5.37502531884319       -2.36150749766454       -1.81686339041307
H           -3.45550193655204        3.55306986281309       -2.38867609488197
H           -1.47223332471316       -0.05517635184807        2.46273286719607
H            0.12291601580789       -0.46444390888311        3.10853182817559
H           -0.54416666354729       -1.40032595440081        1.77566380640013
H            1.18032612880666        2.50293001336303        1.29231420150487
H            1.43865937063978        1.47757193263398        2.71769263700221
H           -0.11184560760985        2.30655010223045        2.48559277795114
H            1.52074282333698        0.47202637363012       -0.37061774047210
H            7.50748923905221       -0.70144778355098        0.30703290156436
H            7.05903629851775       -2.33920905937172       -0.17021009205996
H            7.38013802355545       -1.11348712958320       -1.41420326975582
H           -0.23737000649244       -1.25661364034577       -0.69049430790771
H           -1.65588204958863       -1.40566937142602       -1.74387249610459
H           -1.75135807179809       -1.92956087847235       -0.05324693188138
