20
 energy: -37.598431626956 gnorm: 0.000579824931 xtb: 6.5.1 (579679a)
C            3.29934817296953        0.65445082376499        0.22911724849166
O            2.14752602814246       -0.00659952717156       -0.35504832072826
C            0.97467306299816        0.37327963468150        0.00566261142817
O            0.62073845741309        1.21000613481386        0.76842368876974
C           -0.14645187454990       -0.48623793800253       -0.79964891617490
C            0.37448587626703       -1.81155861471159       -1.31436718784305
N           -0.56216901610191        0.48023257490106       -1.74431679744126
N           -1.65638598812227        0.98603341662714       -1.37452456826264
C           -2.06137609340459        0.32637837098487       -0.23514535423410
C           -3.26547541064843        0.62945872415414        0.52517814061023
O           -1.23125552598016       -0.59512863240452        0.08347336683295
H            3.43815979211532        1.61456847293242       -0.26762014944146
H            4.14236635302454       -0.00622740027098        0.04413464241566
H            3.13375312093028        0.79678101956706        1.29661641276187
H           -0.44356388472796       -2.34809581630275       -1.79134382385373
H            0.76317492061420       -2.39742309640342       -0.48461374626269
H            1.16633814227258       -1.62423177538066       -2.03559242227705
H           -3.45747163303351       -0.13676226442306        1.27279409737184
H           -4.11256834590221        0.74581458160003       -0.15277710744814
H           -3.12384815427613        1.59526231104360        1.02055918528488
