42
 energy: -82.976926748686 gnorm: 0.000515481299 xtb: 6.5.1 (579679a)
C            6.70497905436873       -0.58238319367287       -0.70460229828629
O            5.31792610735987       -0.43018285725113       -0.41488190494082
C            4.96275892957685       -0.56387123206034        0.87782606676594
O            5.78151518958392       -0.79106554760218        1.74529780714661
C            3.50545249131125       -0.41186777079804        1.08072670499744
N            2.75486132460960       -0.11438854391965       -0.02942334440020
C            1.45930235724081       -0.00119745791652        0.13326421731453
C            0.66121772926684        0.33251486651461       -1.12215413817565
C            0.99510517217143        1.75921076770388       -1.57668579563671
C            0.97206094666495       -0.68636695386221       -2.22359355289115
N           -0.75259704699379        0.25158023715291       -0.74391884211378
C           -1.77333030639589        0.43614185021422       -1.56599122022579
O           -1.73952562317910        0.70278585823818       -2.75525021930057
C           -3.10546915335966        0.27356861095931       -0.87212332303113
N           -4.28384763234005        0.38273536807743       -1.40802440106727
N           -5.14792847999437        0.14802010213868       -0.40048401902640
C           -6.57057379872491        0.17481429995249       -0.66599899554575
C           -4.48847762715117       -0.10038655274812        0.71063221506962
C           -4.99257496800861       -0.41789137401174        2.05612270543363
O           -3.20006186072861       -0.02443499486640        0.43930401497922
N            0.76070311676714       -0.13581337667975        1.26107031567725
C            1.43072674416825       -0.42175491328047        2.40548612366966
O            0.89110465992098       -0.56786855303232        3.51696832513257
C            2.88618405659061       -0.56520931830617        2.29392218463750
O            3.52073938693117       -0.85798101628009        3.44803527914573
H            7.05599939964789       -1.56644423741150       -0.38159756884323
H            7.28891987050026        0.18946785885992       -0.19575522660940
H            6.81523385231158       -0.48275028734734       -1.78301356195632
H            0.46415849446173        2.00386337814291       -2.49516316653405
H            0.71315593477772        2.47197954522531       -0.80289707933947
H            2.06832974807931        1.82950459800046       -1.75102036489167
H            2.05094168988356       -0.71729595566433       -2.37424679988494
H            0.62799732324499       -1.67514473922406       -1.92254700058489
H            0.48637866747563       -0.40881020020569       -3.15741531264653
H           -0.89864501773049        0.05312165060187        0.24785926566792
H           -7.08806391866039        0.56503874105103        0.20612842993214
H           -6.90955246966785       -0.83817231401324       -0.87980264414301
H           -6.73717579548835        0.81445497874976       -1.52938784197367
H           -4.65055169586897        0.34189149819755        2.76156636052844
H           -6.07774142456526       -0.46175084996130        2.06006027181530
H           -4.58360988558006       -1.37762474145563        2.37714352693183
H            2.82397345751961       -0.90656922821369        4.13456380720062
