42
 energy: -83.651591735578 gnorm: 0.000225482162 xtb: 6.5.1 (579679a)
C            7.07688054682057        0.25980174165381       -1.03251958236254
O            5.84967449330634        0.86519354415469       -0.66181433807670
C            4.78057517411900        0.02490125373223       -0.56685922900951
O            4.91760968264905       -1.17271161114952       -0.80209339198298
C            3.53574196980275        0.66265619588305       -0.17987545080573
N            2.47590201765504       -0.22969139881851       -0.10835890308995
C            1.30586588757354        0.17648510082787        0.22475927343716
C            0.13789662689414       -0.79541181214685        0.35669074257029
C            0.27217852507636       -1.86104429980444       -0.74660384202478
C            0.25718835585313       -1.43872722026726        1.74791624735275
N           -1.08844304164653       -0.00287362164295        0.22633097627436
C           -2.41905309106113       -0.72125895749753        0.54662441434255
C           -2.92574856182069       -0.06974247591414        1.87750397004746
O           -2.39959784530987       -2.02243093241192        0.54764682465535
C           -3.36063401398595       -0.18073815962944       -0.58235596639977
N           -3.04242114303299        0.09467728123878       -1.80870570358436
N           -4.21796737630266        0.37224550603657       -2.48070458784701
C           -5.16559946216830        0.23793339013105       -1.61609058599296
C           -6.62032664604833        0.43032237462527       -1.83246229816447
O           -4.70025524756658       -0.11014383407119       -0.39981384426131
N            1.06241312294745        1.49592373740896        0.53603463724970
C            2.00146551869537        2.48334103836629        0.49425045670618
O            1.69088096256173        3.64520990458820        0.76977668136372
C            3.39461233249053        2.04591928947430        0.10268531631895
O            4.29898559776798        2.90684613836254        0.05702550833602
H            7.82827274609188        1.04812838940930       -1.06367550274478
H            6.99828865091965       -0.21222876547960       -2.01748510338548
H            7.37310077418002       -0.50092434449728       -0.30272495203681
H           -0.50142226410459       -2.61958052447284       -0.64044538771545
H            0.17701026898368       -1.39484614489157       -1.72810676063210
H            1.25242230970800       -2.33505272925231       -0.67898316037546
H            1.23680668445103       -1.90849629364218        1.84576554427847
H           -0.51190546675462       -2.19634757204058        1.89265267977108
H            0.15761320744653       -0.67686653550004        2.52131591913632
H           -1.14456188716761        0.29557225287732       -0.74924107141076
H           -3.93317110255365       -0.42758864196810        2.08375990986902
H           -2.27154571345202       -0.36937514515578        2.69385077063021
H           -2.93193120112274        1.01569426878098        1.79825137883671
H           -6.80265582533015        0.68593852224470       -2.87325905003847
H           -7.16370987569330       -0.48066304223386       -1.58311822932474
H           -6.99370558692895        1.23100324725393       -1.19458969825846
H            0.11327089606390        1.74895088543689        0.78530138833948
