47
 energy: -80.209287195665 gnorm: 0.000443769740 xtb: 6.5.1 (579679a)
C           -3.80953341309110       -1.04026177159899        1.27207259511890
N           -2.49179957846245       -1.09427078227848        0.65479016721994
C           -1.88133826491144       -0.05093933584608        0.07460073653420
C           -2.56953905093959        1.31617851295904       -0.08502316372983
C           -3.77347227939304        1.20530895775344       -1.03051205647862
C           -1.57639132451798        2.32697862399820       -0.68393395444531
N           -3.02421022306046        1.82040710704469        1.21566153312611
N           -0.67449112384742       -0.09527122061156       -0.41464973570711
C            0.08277409852353       -1.26907652747951       -0.28543750656908
C            1.46611253542620       -1.17446692821768       -0.75013305035493
O            2.29029093224471       -2.10291545200898       -0.67012055019990
N            1.78755810558227        0.01111730895177       -1.33192719038777
C            3.16534131473395        0.34165707771322       -1.65029935282998
C            3.90054546930033        0.80447806313057       -0.40899099963058
C            3.91675781128234        2.15312129057652       -0.06163851723727
C            4.55974823325575        2.57980093410402        1.09265777338221
C            5.17784513112566        1.63034526101832        1.88526453907736
F            5.80447224626920        2.03434633259769        3.00602658035610
C            5.18086240331446        0.28294771101429        1.57254307809467
C            4.53257848772876       -0.12448220168370        0.41524769464288
C           -0.41721125814789       -2.40989796662580        0.25123057932293
O            0.32449009246019       -3.52983903001175        0.38449745900102
C           -1.89484980682409       -2.58048587904037        0.69158709566508
C           -2.60667793852950       -3.29726289908772       -0.51989437474299
O           -2.08956111143198       -3.13110128580164        1.83904631144971
H           -3.86670338414349       -1.83302734552971        2.02646319451592
H           -3.98022035621329       -0.08243760626212        1.76275167047659
H           -4.60147948064870       -1.20882012827666        0.53463257397286
H           -3.47560876304863        0.71165308817499       -1.95557488309666
H           -4.58774803915576        0.64338269032130       -0.57736997281256
H           -4.14430571975646        2.20090793322855       -1.27352270997322
H           -1.27886328418975        2.02060270190444       -1.68599201181815
H           -2.04226868398287        3.31029238562534       -0.73687194952415
H           -0.68367290546296        2.39408863007250       -0.06350220888895
H           -2.21860900579512        2.10355944685787        1.75960521221547
H           -3.58027236526189        2.64874259438176        1.05948981267906
H            1.13343336127307        0.77518331759334       -1.21355217515932
H            3.64527533335684       -0.55170714307841       -2.06311942971167
H            3.16088020119409        1.12797641876625       -2.40887280999306
H            3.42935265807641        2.88161494673231       -0.69893995264695
H            4.58482940378288        3.62511956963695        1.37006481847671
H            5.68274795048409       -0.42535795694771        2.21903610369272
H            4.51692914018215       -1.17565837916207        0.14870762388631
H            1.23716128435299       -3.34423019736654        0.05417527376358
H           -2.13620726096844       -4.26922431767261       -0.66292472486278
H           -3.65806426339633       -3.44610132733289       -0.28175882155190
H           -2.51688730877225       -2.71297922223932       -1.43360232431531
