16
 energy: -34.111580332488 gnorm: 0.000704662813 xtb: 6.5.1 (579679a)
C           -1.31098978049327       -1.46169823264208       -0.99437883983680
C           -0.26174550000488       -0.56229763827540       -0.45439102648232
O            1.06099198242658       -0.82896100027282       -0.61298560585896
C            1.71594576407853        0.28057323872542        0.02703285990894
C            3.02988028370652        0.46837195850299        0.13367603142705
O            3.80345558810652        1.30161159466241        0.61663858513158
Cl           3.97617878074052       -1.07857097944665       -0.76055949535815
N            0.72267130183478        1.16939431229230        0.54047316012982
N           -0.41473614025622        0.56593269793539        0.18980705425187
C           -1.66579018203838        1.18830575616221        0.54994797255531
H           -2.13111988149867       -1.56327909256917       -0.28445275429455
H           -1.72167998760028       -1.07435785553282       -1.92964313801411
H           -0.87982517060545       -2.44256002103174       -1.18665160029659
H           -1.44306451979402        2.14248991794355        1.02190498817828
H           -2.27012850837005        1.34535043126485       -0.34191917164602
H           -2.21004403023227        0.54969491228154        1.24468798020454
