42
 energy: -83.582545870239 gnorm: 0.000770418313 xtb: 6.5.1 (579679a)
C           -3.98830481623990        0.56204153302813        1.85322169682962
O           -3.59187858141095        1.82206643580552        1.33317273080103
C           -3.37265789148914        1.89550889967193       -0.04796170554304
O           -4.19326066911447        2.81250868947519       -0.68075840881984
C           -5.58776579960636        2.57458082283621       -0.58634616331874
C           -2.37289783334930        1.18901238274011       -0.68778835786755
N           -1.56227784750488        0.41822654988016        0.15283088103133
C           -0.60147695814137       -0.27920358995910       -0.35409324262869
C            0.23114329366320       -1.19247700826636        0.53026245820847
C            0.22844453997095       -0.69112270372470        1.98103990667934
C           -0.39014444577464       -2.59633133366352        0.46821927569565
N            1.58885277731558       -1.29844283441547       -0.00595841901417
C            2.46828311383385       -0.19819566340179        0.11136674451919
O            2.06083687844585        0.97808423365917        0.20984139330418
C            3.82930906158211       -0.61088866116774        0.03676536169630
N            4.27144180598882       -1.87340896626551       -0.07023102900262
N            5.63813534298545       -1.80484750079260       -0.07832277761932
C            5.96462663780649       -0.55765823725946        0.02116158229806
C            7.33814435503224        0.00498794544538        0.06323838526168
O            4.89423410116267        0.27117196351075        0.09769777992953
N           -0.34221968431910       -0.31355427802415       -1.68557602102338
C           -1.07560663986677        0.39987413643039       -2.64385300167303
O           -0.73731142910677        0.26331032151155       -3.84967623698327
C           -2.15764632953177        1.21685781558881       -2.13391451702987
O           -2.89061337210899        1.90177891833564       -2.92300845849334
H           -4.28363249543727        0.72135976673841        2.89209946802185
H           -4.83966177429126        0.14687405137761        1.29979996255613
H           -3.15998231578560       -0.15802193865413        1.82131490577404
H           -5.92932274185212        2.61876618675795        0.45497781083403
H           -6.08972297671288        3.35874521410588       -1.15622836789436
H           -5.85605067645815        1.59541408955174       -1.00585973440481
H            0.85451436821256       -1.33230639020482        2.59948442783901
H           -0.79005277888473       -0.71167700281694        2.36726241155264
H            0.60006327544505        0.33215195598232        2.03395893383520
H           -1.42415530618071       -2.55567317411885        0.80840621821921
H           -0.37017692176439       -2.97159399997678       -0.55442795026371
H            0.16056678684049       -3.28633538207805        1.10586919013467
H            2.03612277003651       -2.17647974007912        0.22371134669046
H            7.52015762242851        0.49327314559427        1.02149104342143
H            7.47219348061860        0.74779652053361       -0.72363335820511
H            8.06151407991869       -0.79577988301839       -0.07089790522052
H            0.38823899363492       -0.92039629066663       -2.02457426013509
