42
 energy: -82.949434895239 gnorm: 0.000541598711 xtb: 6.5.1 (579679a)
C           -6.18620116483210       -0.19544646544017        0.12879536503029
O           -4.79662381582134       -0.57493816712829        0.08338136178574
C           -3.91330093059198        0.42652306789004       -0.11519950788238
O           -4.25260430899436        1.56978727423766       -0.26177735408748
C           -2.49508539725151       -0.05151115308878       -0.11137751902321
N           -1.58444927765252        0.91216070724784       -0.30283200735198
C           -0.30032241268485        0.54485514990422       -0.29756892180502
C            0.68713835590121        1.67691921804196       -0.52887160700896
C            0.48590096728256        2.21654006523330       -1.95253840822989
C            0.44899578148524        2.77684588115150        0.51491714552897
N            2.03114632954869        1.12770414237906       -0.37836635677677
C            3.15665143634807        1.84195000280464       -0.51121337843685
O            3.21937656297558        3.02660581752226       -0.81117722863260
C            4.38356934882015        1.04086711228869       -0.24647555080187
N            5.61752637513644        1.42951383001311       -0.33978464479080
N            6.39404813587249        0.36724923702503        0.02111491562307
C            5.58536982774573       -0.60237904190695        0.31500328750878
C            5.93250652468135       -1.96557763597299        0.77312673134057
O            4.29989098419264       -0.24323274365875        0.16478715973154
N            0.17104263372715       -0.66791632079668       -0.12905346623824
C           -0.68211426988418       -1.72613934932641        0.06936592115178
O           -0.28596906278779       -2.87999921517907        0.24257908631534
C           -2.08255824371426       -1.35036268611471        0.06622985042190
O           -3.03667644876799       -2.42301355118818        0.21630331764126
C           -2.97351755292400       -3.18659003325963        1.45943729476574
H           -6.32742400441771        0.57814325043253        0.88579795225254
H           -6.49557566524454        0.17928651557590       -0.84855251881134
H           -6.74074783638585       -1.09241538050924        0.38942451896915
H            1.14185138860921        3.06651018894509       -2.13352996370543
H           -0.55006253977994        2.53189439060787       -2.06754092820839
H            0.70114650848443        1.43543938548842       -2.68065752987420
H            1.09502890469707        3.63164704049855        0.32096959545758
H            0.65537014958787        2.39143123422129        1.51248998606117
H           -0.59160943005627        3.09415936440889        0.46619828306713
H            2.07587028888638        0.14496325137945       -0.13138462334977
H            5.50313937490942       -2.70676879770683        0.09957351919992
H            5.52298606480129       -2.13786345727648        1.76839540508260
H            7.01340744678628       -2.07880407938690        0.80072849611009
H           -3.94701442423607       -2.02169696725827        0.11469906304153
H           -2.00129413980586       -3.67615842347949        1.48097376916126
H           -3.10140154055084       -2.51453085215438        2.30698422103755
H           -3.77741292409986       -3.91565380647344        1.40701726873224
