42
 energy: -83.571846185912 gnorm: 0.000367758896 xtb: 6.5.1 (579679a)
C           -7.17975265025683        0.53854752155996       -0.37648012890199
O           -5.88492377226377        0.14432023822640       -0.81012575840597
C           -4.89859903480458        0.19559624276231        0.15286357819687
O           -5.17501724440538        0.56461092394611        1.29209230133302
C           -3.57916460931919       -0.20480334436839       -0.31644408454470
N           -2.60154263656916       -0.11386747467648        0.64784880065527
C           -1.37386729668811       -0.43542952433232        0.30473915862379
C           -0.28623488139855       -0.35872604690558        1.38087219098234
C           -0.80471865992445        0.38774675945307        2.61592617793757
C            0.08776164314553       -1.81144223500263        1.74758303129967
N            0.83853070554964        0.36813827591040        0.78642908689299
C            2.13088621359008        0.28379708297093        1.42989658566109
O            2.22337641093780        0.17426655680257        2.69796817176298
C            3.16618530004301        0.41491079010031        0.53468951563658
N            3.08126104217100        0.54512218962421       -0.86124466581237
N            4.34660670482777        0.61580686761454       -1.24999525016288
C            4.65057609401682        0.77169894421656       -2.65175532343654
C            5.22159955906568        0.55241561975762       -0.26827401338739
C            6.70132418923445        0.60546504599086       -0.36545690092733
O            4.57482560361156        0.42266348629030        0.92510790966710
N           -0.95970619676530       -0.85394076332278       -0.89041195016074
C           -1.86038129360194       -0.98671201756824       -1.90690012877435
O           -1.51112609317044       -1.38278721771677       -3.04213966369140
C           -3.24365068507670       -0.64190571081474       -1.59093639128906
O           -4.13417133346070       -0.78259466653911       -2.62477233722842
H           -7.55160739644883       -0.13959116610689        0.39833111897617
H           -7.16067955868372        1.55713633960851        0.02436664179994
H           -7.83447700794215        0.49793296303793       -1.24523456474330
H           -0.04803951965179        0.40450181485182        3.39978327347157
H           -1.05783641433105        1.41484378323160        2.34863494964021
H           -1.70100650668677       -0.10189244481254        2.99813378226959
H            0.84077579836053       -1.83376915316439        2.53500299055641
H           -0.79896866203893       -2.34109165749017        2.09794528474846
H            0.47593780789036       -2.32571525056195        0.86705493874722
H            0.91830537453472        0.11055099508305       -0.20041273290223
H            3.72623799346105        0.66807588289348       -3.21622230253575
H            5.36403336866094        0.00956349834608       -2.96080953684017
H            5.08252268290869        1.75639881811296       -2.82801858077853
H            7.03380259466676        1.53933744222978       -0.82281365012115
H            7.08826396963457       -0.21545615066932       -0.97247240622134
H            7.12582296680818        0.53314972508405        0.63351408229644
H           -5.03316356964789       -0.54687198366871       -2.35243820029039
