42
 energy: -82.985615562761 gnorm: 0.000625704815 xtb: 6.5.1 (579679a)
C            6.65817490635861       -1.09004523578391        0.63059020618091
O            5.38540818607858       -1.26241970538568        0.02044077051678
C            4.49240027118288       -0.26607105081310        0.22093652347917
O            4.78369941810193        0.71279367733132        0.89553240220654
C            3.20032919764698       -0.46867114578124       -0.42747756514447
N            2.31486335284475        0.56200893521466       -0.18567058832850
C            1.14375935101878        0.54662239805099       -0.70073598216430
C            0.18073245118854        1.69235804340181       -0.47554920033600
C            0.59258567263821        2.50275244956854        0.75468273760374
C            0.11536578457564        2.57723539553121       -1.72304320285606
N           -1.17113147807303        1.13356719080697       -0.27307065699349
C           -1.43211216154652        0.20429686462815        0.65012307374599
O           -0.65075214854641       -0.27353892554482        1.45205167993052
C           -2.85475464282696       -0.26217200865029        0.59786348600199
O           -3.73071174529503        0.18662851992540       -0.29476655881402
C           -4.87463013012151       -0.48293512236831       -0.06543160109272
C           -6.06773390536540       -0.23010853602910       -0.89022634266888
N           -4.73955144796664       -1.31708754054567        0.92117460920757
N           -3.46281465894386       -1.17112427813414        1.33193905919391
C           -2.99295430543851       -1.96214239990445        2.44984590881382
N            0.71086181721311       -0.47931845205369       -1.51475461297343
C            1.46466887193422       -1.59085006657039       -1.80135809494768
O            0.99140492164501       -2.48441273442816       -2.49572620267378
C            2.86243883740574       -1.60096810837839       -1.21894716436989
O            3.59873784057203       -2.57063031360579       -1.46524184030447
H            7.14810764542323       -0.18768662600722        0.25201081556640
H            7.25353532143322       -1.96723708998330        0.37954192831577
H            6.55780064168256       -1.00790158829819        1.71733180666014
H            1.59601507736818        2.89735440510220        0.59762398803172
H            0.59977920349414        1.86846093997982        1.63968165500889
H           -0.10198171862266        3.32560743562768        0.90747946831977
H           -0.59905260108965        3.38429403821278       -1.57401861113069
H            1.09765626261477        3.00589877602162       -1.91723121894294
H           -0.19085430320020        1.98889453646158       -2.58621746324129
H           -1.91816178083957        1.47019684219733       -0.85378574551206
H           -5.85068141129924       -0.47217590351320       -1.93165192139556
H           -6.32788424442901        0.82754659677970       -0.84276693089711
H           -6.89914853762058       -0.83434349307961       -0.53550688157157
H           -1.95743078107203       -1.70230147465453        2.65612095728420
H           -3.08452258133802       -3.01519573343554        2.18801911306636
H           -3.62563607379218       -1.74383814381905        3.30843443392335
H           -0.21582437500858       -0.44334036806574       -1.90093923668789
