42
 energy: -82.948762572630 gnorm: 0.000336355446 xtb: 6.5.1 (579679a)
C            5.33344947862919        1.58455423365324        2.11818842782592
O            4.58248575036592        1.38147826550519        0.92251457132977
C            3.54462343210913        0.54163241263726        1.01096613978509
O            3.24504690375655       -0.01460968602812        2.05163556544072
C            2.80813187616294        0.35041402516454       -0.25729590063488
N            1.81123171182868       -0.56286209700564       -0.15940676296057
C            1.06453202409297       -0.85745918358758       -1.18015771048858
C           -0.00530940458380       -1.91239186700867       -0.98766127816967
C            0.55403621667960       -3.03180559458643       -0.10671156439986
C           -0.55901600573206       -2.47809555058347       -2.29423157580542
N           -1.11702546275696       -1.29051616602639       -0.22663677729749
C           -1.76367862578653       -0.22606643751562       -0.68745695096925
O           -1.47849520538501        0.43646451859483       -1.65368055093591
C           -3.00977930162305        0.13316378435223        0.22758863354649
C           -4.10027982129106       -0.91788174394173        0.04123010351575
N           -2.50723839444021        0.25038438320713        1.55265761645541
N           -2.62208843770541        1.48394410866961        1.93136289678487
C           -3.21258769784545        2.17055242539917        0.94851979548746
C           -3.54519273874930        3.60147673181276        0.97162719423515
O           -3.48487876188838        1.42086819415785       -0.09094926764496
N            1.23073408890661       -0.24913325173499       -2.38626397283101
C            2.18685241603218        0.71383428948562       -2.64036879886018
O            2.25891557674246        1.22789498255252       -3.74274189704485
C            3.09453974313285        1.05257940416526       -1.47561933482570
O            3.98524671456306        1.88986060979013       -1.63213641024998
H            5.74693355299500        0.63627881117440        2.47130273110103
H            4.69690075508750        2.00926843629419        2.89883913132297
H            6.13743998695644        2.27565250544457        1.87175652880092
H            1.35123631497655       -3.54827742697202       -0.63866818139832
H            0.95664654726774       -2.61354321073575        0.81560444918872
H           -0.23169837657192       -3.74567167904502        0.13058264888377
H            0.24756447630633       -2.92027952919389       -2.87623849617290
H           -1.29309988195789       -3.24865948805524       -2.06729479037177
H           -1.04676600986009       -1.70335186199652       -2.88268044952405
H           -1.45798007939333       -1.78354010418796        0.58131749025187
H           -4.93889773649048       -0.67426949884645        0.68999417781332
H           -4.42937619758178       -0.91404221332019       -0.99539098698377
H           -3.71121874686327       -1.89862301474927        0.29933479793916
H           -4.61983638687824        3.72502278375619        0.83072949869253
H           -3.05019877377082        4.11004347301051        0.14273696968808
H           -3.24239009736651        4.04486958082484        1.91644605950802
H            0.59048157796709       -0.44915835454081       -3.13900477002608
