46
 energy: -86.337597215715 gnorm: 0.000444244295 xtb: 6.5.1 (579679a)
C           -3.05196893393172        4.31226015368696        0.48654136226578
O           -2.44712036208935        3.05029233774800        0.16609387074460
C           -2.45948172448382        2.12622997774623        1.10330528044571
O           -2.94448563801675        2.25541532964826        2.19717558908304
C           -1.80159584398067        0.83584653008599        0.66544801538092
C           -1.01181012239082        0.61842185265840       -0.59545401077745
O           -0.80859879483877        1.64785326638937       -1.44721833287819
C           -1.59211322083665       -0.61843356295828       -1.31065436292823
O           -1.85296575364166       -0.57816002313859       -2.49437740310190
N           -1.72391176989619       -1.63193361964787       -0.45624494686374
C           -2.22633903895336       -2.92570921915480       -0.92097281344317
C           -1.27484970673915       -1.39261417896892        0.91602698993115
C           -1.62987911300705       -2.54151875187276        1.84702403132485
C            0.25279110216576       -1.07379092449785        0.85278378183238
C            0.80180880845280       -0.73408578906493        2.23474476053308
C            1.06225305300054       -2.19348275036513        0.20817159019847
N            0.37130814270696        0.11980326043263       -0.08459653118926
C            1.08493843446194        1.32709779988803        0.50558875655929
O            0.52049861432580        2.02014289320812        1.28865351877455
C            2.41290999246496        1.45553755507831       -0.02531317542468
N            3.29401371336854        2.39151757176076        0.22158476691109
N            4.38278983084187        2.10301084791616       -0.49590100637573
C            4.13383846933317        0.99844190687668       -1.15626666133326
C            5.02596936423654        0.27995499388350       -2.08105616679521
O            2.90539503299280        0.54452192584018       -0.89651620814367
N           -1.92142199812353       -0.18689167480486        1.41055508772143
H           -2.58571385673304        4.73045994187087        1.38128087274020
H           -2.88436589766192        4.95852534781212       -0.37201209318107
H           -4.12120669411782        4.17489051189548        0.66034691356138
H           -0.94120892330940        1.34309483574099       -2.36542112216719
H           -2.36430957155232       -2.84241337277132       -1.99793637980903
H           -1.49907022047825       -3.70397633535983       -0.70156732516073
H           -3.17633984459105       -3.15342818966025       -0.43876580118894
H           -1.36941124282608       -2.26551236836926        2.86683761885385
H           -2.70281120722981       -2.72053743311251        1.80485490301851
H           -1.10220940238122       -3.45205685088251        1.57727897252433
H            0.81031114121097       -1.63979361360743        2.83812422610618
H            0.18873646367411        0.01787462764386        2.72949246822085
H            1.82576933527321       -0.37412925897022        2.15203152066727
H            0.67084003398922       -2.43680338548507       -0.77759229163734
H            2.09945937872719       -1.87753331985327        0.10726828875308
H            1.03078837505894       -3.08388286926402        0.83314117445539
H            0.89562415485987       -0.15707125123032       -0.91555026590751
H            4.54418518451818        0.18126004849949       -3.05399520277817
H            5.21263327738455       -0.72545182461511       -1.70275094196697
H            5.96632597876427        0.81675705134043       -2.18350031756566
