9
 energy: -15.745795071983 gnorm: 0.000515548400 xtb: 6.5.1 (579679a)
C           -1.07693710917040       -0.27703448081317        0.23455586187033
B            0.46323164985602       -0.00392937548604        0.03480817716607
O            1.00609075834194        1.25318717560394       -0.07513734454134
O            1.31635913812702       -1.06877161098533       -0.05200215211148
H           -1.52578029482396       -0.57924676904016       -0.71219038482575
H           -1.60926264176657        0.60355381744669        0.58630909253983
H           -1.24102946036973       -1.08796417978035        0.94333936126069
H            0.42951445353545        2.01105229929872       -0.01968752493794
H            2.23781250627024       -0.85084787624435       -0.18891408642040
