42
 energy: -82.959008022128 gnorm: 0.000566531752 xtb: 6.5.1 (579679a)
C            3.93782179868484        2.23959111319453       -2.92681288151046
O            3.87404175858860        1.22424917967574       -1.93066843279420
C            2.67980699941809        1.06319679702447       -1.32637083911306
O            1.71394083317216        1.75440201858691       -1.62485332084772
C            2.64290608327634        0.01766940698429       -0.31042702432780
N            1.38684296635655       -0.12343346893208        0.23984978914030
C            1.15927045506658       -0.97937205874965        1.17013287856315
C           -0.27440270330227       -1.09889630960185        1.64513368705787
C           -0.44032173451622       -1.43968836119700        3.11824615935342
C           -1.00522213648777       -2.11145458159631        0.75799449629762
N           -0.82788496706769        0.28542375100873        1.32877579057541
C           -0.45600550113322        1.33138437366412        2.31157350176567
C           -2.30418149601171        0.30635439810735        1.13313827384411
O           -3.03453253815069        0.21568440223302        2.07348162188396
C           -2.62584311294906        0.47258012925390       -0.26387109592775
N           -1.75873165570122        0.56164842886260       -1.24102090014443
N           -2.45907945858943        0.70503248026597       -2.37417898334888
C           -3.72624782867865        0.69881733428629       -2.04233542847568
C           -4.88978322491716        0.82840731906796       -2.93876759252242
O           -3.88781707982423        0.55419628924399       -0.72695263731961
N            2.13112597142820       -1.80947404177461        1.65962714653600
C            3.43548519793135       -1.78422924125309        1.20451226863026
O            4.25734679518553       -2.54655093002191        1.69190649654549
C            3.74017991218580       -0.78271623028540        0.10568134495421
O            4.89503178421691       -0.72852052183961       -0.33977658641528
H            4.95093103210384        2.22901268762726       -3.32722060811931
H            3.71841330605627        3.21877518397382       -2.49069629693828
H            3.21807255529831        2.03867832092736       -3.72615043489184
H           -0.20287835770356       -2.49180938911956        3.26535072101737
H            0.22128951783555       -0.84330140767300        3.74272224282064
H           -1.47208554920793       -1.27573959171767        3.42487825376762
H           -0.51487405767882       -3.07818661824047        0.85830964677240
H           -2.04568115498276       -2.21420914559232        1.06001526939653
H           -0.95891478830822       -1.79999229920503       -0.28472622533406
H           -0.32203272099584        0.51562950226422        0.43112761847469
H           -0.71887644161257        2.29563281375802        1.88231503923863
H           -1.00697970429631        1.16944028466702        3.23294970955231
H            0.61625729562641        1.26919837818476        2.47801397625681
H           -4.55402243487921        0.91943390750890       -3.96877160643973
H           -5.53366555654916       -0.04497793667017       -2.83510329942760
H           -5.47334979903223        1.70652434857070       -2.66178725810245
H            1.91464974013298       -2.46840871547909        2.38788451954862
