42
 energy: -83.647364443861 gnorm: 0.000841741631 xtb: 6.5.1 (579679a)
C            6.05209160929005        1.73941562737407       -1.52698743471935
O            4.96346488379524        0.88717577421045       -1.23090383866977
C            3.92571152147022        1.47171820971009       -0.53118904659510
O            4.01061549783965        2.66432280467118       -0.21809259578219
C            2.84513959257913        0.59124392921533       -0.22022715062851
C            2.73965959217998       -0.75604277563387       -0.62016677217911
O            3.57535140660600       -1.42571596011840       -1.26079566321670
C            1.41324286329134       -1.45902960976972       -0.17525424935976
C            1.62499040712943       -2.97310378487164       -0.06793491973437
O            0.35299614729825       -1.18543153206905       -1.07844574322664
N            1.08438848081015       -0.92350176512618        1.13813979687200
C            0.91277236937786        0.47700185789828        1.04665184129506
C           -0.45029372768239        0.98619252983715        1.48499024720100
C           -0.53091991576345        2.50445871968791        1.26876716039407
C           -0.72798754461322        0.64854238540815        2.95890056543360
N           -1.33977318584835        0.25215022631704        0.57013881283919
C           -2.63108291176730        0.45974888656224        0.65356350049152
O           -3.28803917694995        1.19883769254021        1.41954973676274
C           -3.36116566357959       -0.35839862775690       -0.38832226417531
N           -2.83198161129814       -1.07930170335023       -1.33130135389759
N           -3.86747678659268       -1.62472572767860       -2.05123505104411
C           -4.95572436216789       -1.19860760409219       -1.50012397222368
C           -6.35005596752568       -1.50027547468352       -1.90427818382779
O           -4.71377678146280       -0.39536931815825       -0.45028979838954
N            1.74963562125140        1.21589553876609        0.43705626873904
H            6.51828251449461        2.12026479142451       -0.61075609233919
H            5.73377881916261        2.59492896099923       -2.13431510940036
H            6.78165122524287        1.15182012872034       -2.08516859791616
H            2.37205642531080       -3.19066602928237        0.69364163010791
H            0.68752143341097       -3.45816534806042        0.19762369484936
H            1.96892981089416       -3.36108867703428       -1.02644578932708
H            0.24394618086991       -1.36745366311433        1.49559217411931
H           -0.36585369182272        2.74345206991948        0.21707374975824
H            0.23968056763586        2.99879355791882        1.86212310130897
H           -1.50569955879887        2.88344469369524        1.57207742194046
H           -1.69640406250768        1.04412773738597        3.26262091244319
H           -0.73242082885866       -0.42986831869956        3.11395164176727
H            0.04411004150900        1.08928157145829        3.59085162843656
H           -0.38556092115207       -0.72607261742218       -0.56119022652198
H           -6.89112134203694       -1.95848881306423       -1.07708276716527
H           -6.86971392738866       -0.58280074759974       -2.17971704974550
H           -6.34496304360145       -2.17947259612456       -2.75309121468300
