47
 energy: -79.514231872173 gnorm: 0.000537159181 xtb: 6.5.1 (579679a)
C           -4.10405672511196       -1.52591203302826       -1.04904474366782
N           -2.70793762127882       -1.20833553274573       -0.71753878219652
C           -2.30575295444231        0.02803082912683       -0.30915050289466
C           -3.25802771839903        1.20139458117976       -0.13529613523400
C           -3.93361637194237        1.07614740611696        1.23948594284896
C           -2.45590341826383        2.51348731924670       -0.18770935624238
N           -4.26887544247903        1.19935014491658       -1.18296831630206
N           -1.05817943179100        0.26817727968260        0.01179546031912
C           -0.15804714039828       -0.72220307559430       -0.08612984015145
C            1.15913792833691        0.82259079544130        1.23148681111325
C            0.57873088660630        0.48650180552229        2.54918604053995
O            1.58140240131301        1.85706519917038        0.84954118778236
N            1.22046072387169       -0.37791824957809        0.28722823241011
C            2.06737818204116       -0.10768669863960       -0.93086099992586
C            3.52281747485252       -0.10514161249625       -0.54913479793848
C            4.15562882336830       -1.31660776602029       -0.27129239638261
C            5.49738476242909       -1.34383087175163        0.07772487415228
C            6.18316201571507       -0.14264308043702        0.13743208236419
F            7.47749007743707       -0.15909868626147        0.47131016833892
C            5.58309151389831        1.07515838425594       -0.13246641471533
C            4.23938931351514        1.08716414816713       -0.47610605069205
C           -0.44923981745165       -1.97011279131089       -0.51977300594471
O            0.49446353094701       -2.92327203214740       -0.61938097388308
C           -1.81964565792069       -2.27309580079185       -0.88075603791708
O           -2.16934148768499       -3.37145560913819       -1.28343329568149
H           -4.23282190962962       -2.60464197472438       -0.96605263401455
H           -4.31500608775247       -1.20484612809332       -2.06765260884702
H           -4.77318793315074       -1.01889514506714       -0.36282195743333
H           -4.54666334117409        0.17861956394560        1.29687454082669
H           -4.56732377719926        1.94493840305259        1.41174687295168
H           -3.17354248716329        1.03221487559569        2.01819597291997
H           -1.74940044530445        2.56302198591453        0.63932151061453
H           -3.14263007472290        3.35532966508553       -0.11988191907365
H           -1.90562375317905        2.57906099379908       -1.12486716819360
H           -3.84156348848249        1.46664398569391       -2.06026906139014
H           -4.97607130224185        1.88727932291998       -0.96068893502202
H            0.01144806942292       -0.43873897850586        2.53063121885661
H            1.40130549147146        0.38941145193446        3.26043246083345
H           -0.05035787546971        1.31366776877041        2.87655442988353
H            1.61730792288361       -1.17912572771440        0.78356858706576
H            1.73808481070264        0.84565207431123       -1.34521494527049
H            1.84582725183911       -0.91672623773905       -1.62849330199081
H            3.59494725966814       -2.24133392248536       -0.33282466246142
H            6.00119271646495       -2.27614687262736        0.29634530928376
H            6.15494514617033        1.99210825824645       -0.07202267907055
H            3.74347108924208        2.02707596595660       -0.68613097473597
H            0.09374787043980       -3.76232738115030       -0.91089720583039
