42
 energy: -82.996760436295 gnorm: 0.000380433772 xtb: 6.5.1 (579679a)
C           -3.57423955280211        1.08190240420078       -1.47121481672091
O           -4.14386172605803        1.33762067254130       -0.18894383198136
C           -3.64301058913307        0.93824587669797        0.96814661432912
O           -4.39147687265011        1.26320838841539        2.00214410733654
C           -5.61823250549028        1.96374303640590        1.78974272829523
C           -2.45713553946006        0.23096182283960        1.18619769893209
N           -1.67498696472402       -0.06796417888976        0.07244796109835
C           -0.58905007402054       -0.72980197600636        0.20434434765417
C            0.24649425272811       -1.10605250220988       -1.00225973787987
C           -0.00211334445957       -0.14302653031045       -2.16567776471392
C           -0.09164569235778       -2.54538474850033       -1.40420989569214
N            1.66057617917113       -1.06929418920985       -0.62403595390507
C            2.22670974053638        0.05200358128574       -0.11906313730074
O            1.61318879994726        1.05168043761406        0.20705509181018
C            3.69514369577390       -0.10611122104476        0.02562849187274
N            4.39040107132604       -1.15122816550961       -0.31087681531405
N            5.68792330120785       -0.87525338550588       -0.00464337262284
C            5.70263402973750        0.32213465640720        0.49975507965596
C            6.87645890365939        1.07885979874085        0.98799526457468
O            4.47519292048897        0.85975470095155        0.54529879750752
N           -0.14807971398556       -1.20805335744731        1.41641224585883
C           -0.78295248429410       -0.98652252897984        2.60718103052061
O           -0.33602939462930       -1.43114322576052        3.64939305098908
C           -2.06492950897284       -0.17187453587475        2.51745331815031
O           -2.68243213283812        0.07732491993473        3.54712145696476
H           -3.45371926592782        0.00991382626043       -1.63368973934886
H           -2.60723497405024        1.57777064252345       -1.56936223636875
H           -4.28023791024140        1.49247070011846       -2.19333349973442
H           -6.05796041661894        2.10901042180644        2.77497978549168
H           -6.28657797499452        1.37372933822693        1.15985412610140
H           -5.42740123303506        2.92770543305802        1.31398133164427
H           -1.03398770174262       -0.23480561021344       -2.49785195064186
H            0.17914313273834        0.88353952051896       -1.84985769973996
H            0.66002087020412       -0.38732501904681       -2.99396150376086
H            0.12646491725534       -3.22690739292631       -0.58370000753835
H           -1.14951210166897       -2.61590267077307       -1.65156180512380
H            0.49422857247843       -2.83640517157589       -2.27400813496968
H            2.26030031008395       -1.80414086332614       -0.96371641645873
H            6.73381206915402        1.35747397243996        2.03203205463741
H            7.77002969901795        0.46700303542211        0.89171384384844
H            6.99730128520259        1.99375104561372        0.40803722545770
H            0.70078492343572       -1.75260995891447        1.44087666708315
