42
 energy: -82.948129652078 gnorm: 0.000386499128 xtb: 6.5.1 (579679a)
C           -6.31774118321103       -1.04587160243706        0.30947548898715
O           -5.05914798587995       -0.37633206847548        0.09465018595888
C           -3.95391120723483       -1.06924268614277        0.44095846242770
O           -4.00251829569095       -2.17310509436766        0.91250261578670
C           -2.69236357397377       -0.31483277929486        0.15713881776661
N           -1.57116388825136       -0.94442930466877        0.53261027646912
C           -0.41429808651362       -0.31760513609810        0.30112747467881
C            0.82262932841220       -1.07016700266006        0.76304550989796
C            0.75933642800817       -1.23838876343788        2.28809358618613
C            0.86809134488617       -2.43620314231241        0.06421634334440
N            1.98775958152857       -0.27446536703953        0.39163849205768
C            3.25794789995559       -0.63488750488304        0.62435598909976
O            3.61983004365145       -1.65501942673078        1.19065207850849
C            4.20950027037752        0.38305939858507        0.09718793927075
N            3.89821663646540        1.49952917625244       -0.48838998510851
N            5.07179458581032        2.11378010811911       -0.81434522306639
C            6.02333975711813        1.33126524415026       -0.40665723064375
C            7.48274049649123        1.54424202658699       -0.52595201471081
O            5.54398161253658        0.22326294388050        0.17826361200839
N           -0.25467988979233        0.85403878960572       -0.26765350218266
C           -1.34216152476972        1.57345198779348       -0.69937840753707
O           -1.24003349187069        2.66424813715059       -1.26411234348411
C           -2.61028043480032        0.92246164993890       -0.43540338045135
O           -3.79718359087160        1.65731432629003       -0.80317892061834
C           -3.97126436501436        1.94475325889531       -2.22407886306163
H           -6.45248391970964       -1.23754349608789        1.37544233513731
H           -6.32713859074880       -1.98758319029387       -0.24196529383795
H           -7.08875091699472       -0.37677776863938       -0.06166827439678
H            1.61117349686904       -1.81720773045177        2.64128263443598
H           -0.16075617018538       -1.75889988293337        2.54934776970758
H            0.76415399474235       -0.26211497052685        2.77114268938947
H            0.96667870748548       -2.30116209523855       -1.01201620233696
H           -0.05780705758056       -2.97088334591429        0.27085727345213
H            1.70978668834882       -3.02173802529047        0.43015313772249
H            1.79170707103956        0.59702650384018       -0.09344885263427
H            7.93021796486241        1.62186924188422        0.46507974278071
H            7.67537540825488        2.45772196618341       -1.08315442384003
H            7.94098451081305        0.69848640826973       -1.03799825072181
H           -4.58111406301829        1.13422754393342       -0.46930683361556
H           -4.91862559965872        2.46903708111896       -2.31281693050580
H           -3.14078855248417        2.58291826642990       -2.52189959590490
H           -3.98103443940442        1.01176832501890       -2.78582592641342
