21
 energy: -30.762224568760 gnorm: 0.000447288708 xtb: 6.5.1 (579679a)
C           -2.65790642358165        0.60591085103674       -0.07564103870498
C           -1.77818203991794       -0.46188900064056        0.65075183005769
F           -2.63329664498340       -1.16711159427961        1.45063949331376
C           -1.19839863700198       -1.30928157147957       -0.41367107345632
C            0.05628043085845       -1.07083770596278       -0.87036060003134
C            0.90781316704635       -0.14118684362768       -0.21560943069012
C            2.27465195802202        0.07522805902452       -0.72937388830525
N            3.12188781714730        0.81547317422910        0.16641759730191
C            0.45968184069976        0.51355040449978        0.96086108840373
C           -0.79285421683099        0.31062479420215        1.43964839720066
H           -3.42331594376325        0.08049555748178       -0.64202348588245
H           -2.05216390261718        1.21326369010926       -0.74168008773797
H           -3.12459589694379        1.23203117305686        0.68132121582203
H           -1.84005669491098       -2.05994690814440       -0.85985040366718
H            0.45244811764338       -1.63594145945482       -1.70629774808408
H            2.18812585510484        0.62165857403297       -1.67809715671635
H            2.71655689402641       -0.89819497698540       -0.99479945677448
H            3.98391734769902        1.05860922015363       -0.29684781537749
H            3.32543264626241        0.28292778516455        0.99852092343647
H            1.15755653097895        1.15611162112510        1.48569214262896
H           -1.14358320493804        0.77850815645846        2.35202049726238
