21
 energy: -30.829882842422 gnorm: 0.000740903201 xtb: 6.5.1 (579679a)
C           -3.26675516910364        0.12825861548226       -0.17403058446730
N           -1.83253480849179       -0.23314856594174       -0.28078022874370
C           -0.95190753881557        0.66893647114929        0.53159119967762
C            0.48561304481874        0.25646679145835        0.35562717617555
C            1.08024938141674       -0.61591802800325        1.26553372546801
C            2.40515531641414       -0.99583869625967        1.10869146267427
C            3.10990200197437       -0.49069308210791        0.02972209729728
F            4.38774247519576       -0.84898864542810       -0.12565529613984
C            2.54593635656067        0.37172712229599       -0.89474579269566
C            1.22121577014423        0.74465367596335       -0.72344697365723
H           -3.83464850202073       -0.56987071670340       -0.78405268204654
H           -3.56563685778296        0.05530596937758        0.86845448981233
H           -3.39461396632984        1.14479187312345       -0.53698459592024
H           -1.70701599809470       -1.19211476971874        0.03333223171670
H           -1.55014420166540       -0.18393012597993       -1.25675614122915
H           -1.12780999917525        1.68522523740726        0.17622786423610
H           -1.27715438153190        0.57893974089157        1.56870279712529
H            0.50584537710039       -0.99704497718124        2.10057088320642
H            2.88111880369153       -1.67067656625394        1.80833601727989
H            3.12948689832818        0.74299195548644       -1.72712793952858
H            0.75595699736706        1.42092572094236       -1.42955871024126
