43
 energy: -83.888234042564 gnorm: 0.000369671568 xtb: 6.5.1 (579679a)
C            5.90616529626430        1.29872187105745       -1.69730539716255
O            4.87224045321669        1.13141387063301       -0.74399583065998
C            3.73051327342771        0.48773478748951       -1.21631301053650
O            3.69426847442240        0.12769312064332       -2.40163490906902
C            2.71145740882806        0.31751159903223       -0.25252558543486
N            1.58184690561970       -0.29734102733154       -0.71523689425772
C            0.56472916842297       -0.53159858394952        0.02462651751510
C           -0.65650123631674       -1.24889159818454       -0.50338235654108
C           -0.81136482571158       -2.61676102391466        0.18017036944407
C           -0.53986460913652       -1.40878387417781       -2.02265305855262
N           -1.83139651822163       -0.41361914506620       -0.18334541375147
C           -3.09750972038171       -0.73092740075135       -0.49704316568820
O           -3.46603648557094       -1.73973100314588       -1.07726259033666
C           -4.03687098293186        0.33243394045706       -0.03957612070939
N           -3.70826855261101        1.43813038366857        0.55738217036533
N           -4.86720401067352        2.11704702926157        0.79510599249776
C           -5.82779603964082        1.38125480946575        0.32691864895613
C           -7.27782116789811        1.67511920817782        0.33761670085899
O           -5.36850061189596        0.24227273369791       -0.21369987004325
N            0.54207016547762       -0.15888929487155        1.38730919804767
C            1.56503208322629        0.45915719199057        2.01407864205340
O            1.48427016491480        0.73983534634256        3.20937189586668
C            2.83100163678655        0.78990982448324        1.18677887682545
C            4.01420492073582        0.15016967919889        1.93893389193753
O            3.03224331580296        2.21179386885064        1.26441260538447
H            6.72279972960914        1.82406094528228       -1.20033540438485
H            6.26711800398195        0.32987324317746       -2.06324985013684
H            5.56216940209348        1.88907214988141       -2.55485530847336
H           -0.95486319962624       -2.48762827324215        1.25164881306378
H           -1.66622544644287       -3.15410096295314       -0.22665173487465
H            0.08887892909468       -3.20674140668207        0.01306228107745
H           -0.49791449134195       -0.42858039918206       -2.49662551272400
H           -1.39028449056303       -1.96209489131172       -2.41600586662921
H            0.37736348266048       -1.94894844596190       -2.25554444294885
H           -1.67259254693440        0.46124254845530        0.29465037385820
H           -7.82054336684861        0.85803888140182        0.81147901942937
H           -7.64578100112471        1.77642099608491       -0.68339069543802
H           -7.45956272215803        2.59891425242483        0.88098448598905
H           -0.26296895729001       -0.38576017400249        1.94681371624065
H            3.94650618843410       -0.93447363807268        1.87289149335219
H            3.98283014630593        0.44848196008346        2.98725719727118
H            4.95759326142303        0.47815735202745        1.50897663135355
H            2.42457057256751        2.66336554952845        0.67016549697132
