42
 energy: -83.615682256301 gnorm: 0.000360684575 xtb: 6.5.1 (579679a)
C            6.19410621438215        2.47236818565117        1.23212744208260
O            5.22579194069315        2.23074869067189        0.22461995627197
C            4.17783335731351        1.44065576183315        0.58896971336615
O            4.11431155190162        0.98957982789502        1.72892291674679
C            3.20068504558230        1.20238951271365       -0.45811268270397
N            2.14672640082182        0.40558678210737       -0.03617285386432
C            1.20116694845432        0.10031758332390       -0.84633544489253
C            0.06584837824423       -0.81728058169322       -0.43877248737561
C            0.48168394027449       -2.25737546406126       -0.77699511311750
C           -0.20749705099679       -0.67732291622096        1.06572485898262
N           -1.11227060342900       -0.44468009450133       -1.24676876214743
C           -2.30021634456223       -1.23010648737166       -0.98142659809188
O           -2.45098743138138       -2.34109939469042       -1.86464029885144
C           -2.96714861882711       -3.50093960788026       -1.24640481598145
C           -3.40051430633456       -0.65401389421129       -0.40244687583334
N           -4.65677751065073       -1.15229618248035       -0.28371294828028
N           -5.34413174564178       -0.25935658512608        0.51796455350398
C           -4.53927540802021        0.68735645768830        0.84359502760124
C           -4.83162714299668        1.87539429860266        1.69074757194489
O           -3.27649003938674        0.53157149357168        0.31575735986589
N            1.19830786424805        0.53368339426717       -2.15494284028039
C            2.16558489013534        1.32366484558232       -2.70392835627051
O            2.08103479425457        1.67379685083523       -3.88347383089008
C            3.29996879816581        1.70748552075931       -1.78057092105069
O            4.21994008679373        2.42093555772921       -2.23259455766154
H            6.65053491458601        1.53522038572821        1.56716798504079
H            5.74249638583299        2.97022855764582        2.09648291530078
H            6.95738269083103        3.11609310382326        0.79632686870961
H            0.55973129944367       -2.37677659461374       -1.85781260331065
H           -0.25655356103935       -2.96299118904992       -0.39912826784385
H            1.44561165830845       -2.48511784287824       -0.32229629587494
H            0.70445788755442       -0.87527340105232        1.62894476094625
H           -0.55059399735535        0.33236041102188        1.29141476812939
H           -0.97832861828156       -1.38583719762009        1.36817240841209
H           -1.33480305200333        0.52618932495194       -1.02301036905216
H           -2.38093643984971       -3.78542620168431       -0.35963834120094
H           -4.01395524792452       -3.35841660415085       -0.93572985039152
H           -2.92054500856470       -4.31387837470573       -1.97611299566217
H           -5.88592097392138        1.87324111953714        1.96054546334618
H           -4.23340859002207        1.86017472401143        2.60376966760004
H           -4.60267448468331        2.79786782725283        1.15432798787436
H            0.41145212805765        0.27127939679368       -2.73542811509092
