46
 energy: -87.046801615447 gnorm: 0.000701730583 xtb: 6.5.1 (579679a)
C           -3.40976712336690        1.96032830226293        1.91168676329640
O           -3.94078539126183        1.59182267391295        0.66507856180730
C           -4.21279275695383        0.10870971588523        0.52743436251244
C           -5.35851555167586        0.10505166277755       -0.54356969223840
O           -4.47481464244788       -0.48910022249217        1.63788003154119
C           -2.91213184985171       -0.47118555673989       -0.18930447513471
N           -1.79579827181358        0.31543236700062       -0.23471158572753
C           -0.67489790887526       -0.09645289167238       -0.73103067704999
C            0.46737009797700        0.91615496688561       -0.76245657436024
C            0.05268865604972        2.18241115222009       -0.00003694870530
C            0.80511376606743        1.28663486251935       -2.21374394003726
N            1.62446680930134        0.32697276374607       -0.07083742395604
C            2.84490069009506        0.89990749142428       -0.02079669161360
O            3.19585506711096        1.89741196104708       -0.62516668939400
C            3.74792341830349        0.12480876814602        0.87291602487862
N            3.41754951463326       -0.91895796344043        1.57205991204597
N            4.53622493732849       -1.31175664522990        2.24471265563160
C            5.47728818863068       -0.48196157629192        1.91203281218149
C            6.88486729591870       -0.48042712175510        2.36674675333792
O            5.04127153288266        0.44926423274245        1.05015773545058
N           -0.53027255530766       -1.36260578212328       -1.24073131914807
C            0.68251574767344       -1.90019872101528       -1.85249874726499
C           -1.60571727175164       -2.24360111079200       -1.25524658463793
O           -1.49695991947400       -3.37807940825028       -1.73751900898013
C           -2.82721331569028       -1.74256012358162       -0.68304216257299
O           -3.87273362970719       -2.61762379123046       -0.70474163241018
H           -3.40272566676330        3.05431736641623        1.96458905505040
H           -2.37503043938531        1.60111918759662        2.04213811493695
H           -4.01269799110729        1.57466070900586        2.74998805390703
H           -6.21823474737538        0.62294138650731       -0.12081082899642
H           -5.63825795019654       -0.92036633866869       -0.77243771484562
H           -5.04113074918185        0.61287717322612       -1.45283280388092
H            0.87198308733962        2.89854601622748       -0.01045139656623
H           -0.81978142069786        2.62877804918786       -0.47460448748449
H           -0.19318664434998        1.93676977680652        1.03207815823694
H           -0.11866746159368        1.51787399506202       -2.74307182792647
H            1.31043866862863        0.47378571351599       -2.72817245599513
H            1.45033279883000        2.16243840680590       -2.23959133181679
H            1.44611456897130       -0.42300564274207        0.58238303938369
H            7.55134635308029       -0.58355852770264        1.51067642750759
H            7.04804058058732       -1.30462418299425        3.05648681350674
H            7.11650159798709        0.46223595245138        2.86212320188454
H            1.56078941347809       -1.35687679458357       -1.52417748217936
H            0.59476549342924       -1.84815406224343       -2.93826078215332
H            0.77392278446890       -2.94663042210848       -1.55929205231255
H           -3.57015580995179       -3.43559076771130       -1.13203415969914
