42
 energy: -83.001606804455 gnorm: 0.000875401211 xtb: 6.5.1 (579679a)
C           -6.05988750669909       -0.88124587695295        0.38384888771989
O           -5.07447165755827        0.12953152493395        0.11503376337249
C           -3.81279564982676       -0.20482135405896        0.27296914394100
O           -3.41520036709671       -1.27920229227760        0.63675081977021
C           -2.85398728571580        0.98314975084393       -0.03767192138036
C           -3.50413915416424        2.01861771388454       -0.95456618844966
N           -1.71267494321866        0.38968620047608       -0.69466773218298
C           -0.73784894453691       -0.05266409202337       -0.01781687570704
C            0.36978592882106       -0.82779807515203       -0.69821282981857
C            0.33090747015118       -0.59758727010627       -2.21115715948952
C            0.16719660672051       -2.31184937238746       -0.35646166599949
N            1.64176700440661       -0.34555990434903       -0.15042061616730
C            2.83946822450287       -0.86934989538455       -0.50750745555976
O            3.00488722564546       -1.87514156254772       -1.17055812850834
C            3.95143515850560       -0.05253759944137        0.04109702994916
N            3.82975432477219        1.03956879315830        0.73507831617371
N            5.09088551892451        1.46748232855701        1.01848037070459
C            5.90313844616168        0.61018949962103        0.47661401518026
C            7.38222251247701        0.63249077362536        0.49149812695249
O            5.24332965852759       -0.37148860009298       -0.15489975714765
N           -0.62366671981167        0.07714261962458        1.36163830839547
C           -1.43837081475523        0.85708914633309        2.12484428396038
O           -1.28286244370994        0.99784655820867        3.31645729473388
C           -2.54895233177649        1.56058965239952        1.33379328266963
O           -3.16098980964321        2.48409787908563        1.80154645057690
H           -6.06130937529539       -1.11918609308600        1.44925270377928
H           -7.01788276683591       -0.46340400708458        0.08349141383033
H           -5.83416040295999       -1.77953679485606       -0.19326045079415
H           -3.85547140645044        1.53599110957864       -1.86344210931610
H           -4.34250351320244        2.49191024970946       -0.44654225391091
H           -2.76792060918011        2.77682659049787       -1.21427979403085
H           -0.64203576968106       -0.89631667643360       -2.59755148751530
H            1.10663573600725       -1.18751905505337       -2.69530839465959
H            0.48943115369776        0.45644520169703       -2.43240157916799
H            0.88221794469225       -2.92506743608892       -0.90083146169638
H            0.30172713441421       -2.47223581641469        0.71166712263947
H           -0.84328890632196       -2.60751575687289       -0.63567585538018
H            1.65215274258443        0.56751706960665        0.27932507770614
H            7.73012226030180        1.41122628647251        1.16575631861656
H            7.76067868047727        0.82863877389287       -0.51235666915292
H            7.76675965120439       -0.33449625972074        0.81383442126165
H            0.14591799544636       -0.37496993182202        1.83261223410899
