33
 energy: -57.863241208785 gnorm: 0.000354993568 xtb: 6.5.1 (579679a)
C            4.36015033258304        1.07684302037304        0.10733857984423
O            2.97662636918894        0.67494247972550        0.05909477342946
C            2.73330068232349       -0.55803223252375       -0.33071771867522
O            3.60415559122155       -1.34474711591037       -0.64218788355006
C            1.28983651067315       -0.91636680593242       -0.47542283995235
C            0.97095530955527       -1.94123336323001       -1.33273731891424
O            1.85044024598029       -2.72213517765339       -1.92266531244205
C           -0.43462381787628       -2.19888504837813       -1.70012730166749
O           -0.84026797246784       -3.07045377597375       -2.42680723324893
N           -1.28938787614463       -1.27056800356762       -1.12413706712426
C           -0.99319932428179       -0.32582417773137       -0.23017710534631
C           -2.21859450322504        0.45064865926479        0.25770427500067
C           -2.70655552725437       -0.16697715634677        1.57677032536770
C           -1.98348334744623        1.96308407229228        0.37597294349954
N           -3.25540878929089        0.20917266426314       -0.74442148723784
N            0.26658158412826       -0.17871425145667        0.14528512174469
C            0.63475331470053        0.67371116812973        1.28184385434508
H            4.77130705101853        1.08123296299134       -0.90359244747316
H            4.36837258643972        2.07718115417366        0.53296110074007
H            4.92195999057718        0.38201325776924        0.73375918804474
H            2.77327286984691       -2.49768121240876       -1.63908335106214
H           -2.28815680629745       -1.28596185709063       -1.37299276986805
H           -1.94282022084940       -0.12274019175816        2.34954956552087
H           -2.98430548465155       -1.20726064313087        1.41339148997387
H           -3.57961952403878        0.38570526674065        1.91927993138315
H           -1.37883901003587        2.32218712445173       -0.45444301116182
H           -1.50491213098962        2.23295731927725        1.31365311544323
H           -2.95275836500586        2.45845939083605        0.34202442628535
H           -3.18350213174129        0.89733458912868       -1.48148136368365
H           -4.16636977544418        0.30345355957461       -0.31832911384519
H            1.46486379041894        0.20989648154063        1.80736764738499
H            0.92224339676827        1.65938420218247        0.92269265206236
H           -0.20601301838337        0.74937364037880        1.96063633518342
