47
 energy: -79.491895012470 gnorm: 0.000474768997 xtb: 6.5.1 (579679a)
C           -3.84228744924110        0.14155295291649       -2.04307636770503
N           -2.60556807827710        0.54908773765118       -1.37015857052836
C           -1.70231946924189        1.26122274477513       -2.22794769887121
O           -1.96189782405114        1.41295647383702       -3.38436909159898
C           -0.49584164716299        1.86704856580532       -1.54275750316864
C           -0.96208997081918        3.24975904479351       -0.98745178312745
O            0.55665376643008        2.01798253988927       -2.43528749954592
C           -0.10352740290212        1.05446879623392       -0.35484274730667
C            1.27520199635534        1.19066453669631        0.24893528554134
O            1.94106345060198        2.19951595427189        0.11018620757431
N            1.62740274700558        0.11511188964468        0.96243153972989
C            2.91985179150857        0.02913217862086        1.63634895470450
C            3.90104181401399       -0.77481345045839        0.81053690823691
C            4.43711981531026       -1.95820409064468        1.30978111743890
C            5.33801197564530       -2.69720254233498        0.55475135425100
C            5.67979088495277       -2.22937884279226       -0.70088328851877
F            6.54459624827444       -2.93936563624752       -1.43925323335636
C            5.16369270209195       -1.05785944513176       -1.22702941224085
C            4.26884673950272       -0.32920736184724       -0.45810613541786
N           -0.97010496852548        0.34164916254523        0.28279539190441
C           -2.25044268798417        0.17669864821213       -0.15036481604529
C           -3.13707400007020       -0.53063152321344        0.83972437046541
C           -2.60589380292479       -0.30494818143478        2.26690700659301
C           -3.08201091728699       -2.03250880238193        0.49726572336234
N           -4.50436457349646       -0.06388924610191        0.73448332671287
H           -4.59719243339328       -0.08552750805063       -1.29394303658357
H           -3.62654552633345       -0.73800740331265       -2.64859551256841
H           -4.16480408245446        0.95902128168371       -2.68587354541288
H           -1.74124295615470        3.11985873468056       -0.24158895084832
H           -0.09309925537794        3.73373964413325       -0.54473061929497
H           -1.33512702294697        3.84642278211422       -1.81667518111972
H            0.23703217787446        2.30419140232719       -3.30326071661114
H            0.99604108434782       -0.66472362808002        1.03062994284611
H            2.75712224876078       -0.43773726196833        2.60968929081279
H            3.28385772438665        1.05157325089723        1.77963531414752
H            4.15065703901325       -2.30884866530534        2.29391219958250
H            5.76136044604793       -3.61935157183309        0.93070154840154
H            5.45558268069839       -0.72689054494284       -2.21533898876753
H            3.85035161159183        0.59131337944925       -0.84783263410807
H           -2.53654903478233        0.76071982861056        2.47656433026895
H           -3.29717784762180       -0.76210605084099        2.97169468748045
H           -1.62335268514505       -0.75649999672840        2.38575057088681
H           -3.64212432786647       -2.58007175113641        1.25301398094593
H           -3.52702775050833       -2.21482734756160       -0.47885584420235
H           -2.05053106867546       -2.38020356513368        0.49471258910294
H           -4.57790334879631        0.88025728188311        1.08493829483207
H           -5.10917581236787       -0.66114539419013        1.27994924113293
