42
 energy: -82.977408179942 gnorm: 0.000306327174 xtb: 6.5.1 (579679a)
C           -3.01663003749202        2.29148801691276        3.11110305503095
O           -3.58768670170741        0.97537685759293        3.17528480192738
C           -3.34247313216450        0.11605460202752        2.23265547397729
C           -3.97092595552569       -1.21155886089931        2.37113791928975
O           -2.54981913158934        0.47342657082381        1.29010403028862
C           -2.37692790100376       -0.21744234820013        0.07473631994462
N           -1.09372564069340       -0.18818836136595       -0.36393295108856
C           -0.82372638954411       -0.71852937786412       -1.51148288146429
C            0.59180690592430       -0.72348128630833       -2.04948506353787
C            0.67321020281110        0.16291898667684       -3.30186593819385
C            1.04523291874558       -2.15813075021596       -2.35692311364950
N            1.43272333008246       -0.16352864971678       -0.99427211884999
C            2.76183523130767        0.00759798894758       -1.09718437407551
O            3.44347692095147       -0.26081850040658       -2.07273697977264
C            3.32328244209958        0.57812143525624        0.15698601829562
N            2.65842956894025        0.87781830196951        1.23194448916512
N            3.56299746529858        1.35628220757550        2.13300004433401
C            4.72230144530907        1.31625921299114        1.54958499749328
C            6.02945892550727        1.72649394415842        2.10856098033598
O            4.63636419737029        0.83504778826985        0.30065987711248
N           -1.80842114005477       -1.27712237643886       -2.28209629757311
C           -3.14749115190094       -1.32753798188644       -1.94434965520628
O           -3.94679025042019       -1.85659970134155       -2.70273409843150
C           -3.49020278645304       -0.70785022389482       -0.62503421537798
O           -4.67666074909113       -0.62165607626026       -0.23101200898844
H           -3.25370129523814        2.75111077920342        2.15027994600068
H           -3.46248379403212        2.85203346530386        3.92936018116513
H           -1.93471563545236        2.22760570140130        3.23377082989676
H           -4.20777331377730       -1.39460502015169        3.41588812931738
H           -3.30557118783276       -1.97605339269527        1.97363266715780
H           -4.89402068346406       -1.24640759555536        1.78192883325080
H            0.40433528897636        1.18748390373094       -3.04906534583786
H            1.68462051711192        0.14641132636125       -3.70398889773161
H           -0.01325899686762       -0.20824381639530       -4.06005190958458
H            2.07406997875919       -2.15216175964645       -2.71249710236978
H            0.41312825459642       -2.59184914678514       -3.12868549223582
H            0.98021500759394       -2.76893237919941       -1.45794658352509
H            0.96207077413645        0.09728146696095       -0.13427085367447
H            6.44945607804978        2.54041603615520        1.51759725671536
H            6.72772059045054        0.89048448738384        2.07500552794659
H            5.89989919016017        2.05352858039788        3.13718754852136
H           -1.57362835977952       -1.69254605490374       -3.17079204596562
