42
 energy: -83.576115811254 gnorm: 0.000318188691 xtb: 6.5.1 (579679a)
C            6.50925695109009       -1.16923844913633       -0.21874363530120
O            5.17481558328441       -0.71595616166508       -0.06211602953191
C            4.80019409383063       -0.41453377174788        1.21602808067622
O            5.60801384798277       -0.53199475080590        2.14965841655515
C            3.42692768338483        0.02678423593743        1.34923404974501
N            2.66415200684063        0.11160385789512        0.21172437812675
C            1.40819498981969        0.49235193445775        0.36348488683018
C            0.59379241553080        0.57097490830187       -0.93196418360158
C            1.26527320378870        1.60386340266529       -1.85361695255868
C            0.62410857151186       -0.82211282995833       -1.59502762110880
N           -0.76497272380589        1.00094528891030       -0.60948539130128
C           -1.78909611355757        0.77594809713985       -1.60443309805427
O           -1.55682416163728        1.01941672528319       -2.83571623355851
C           -2.98149145186924        0.37143654923777       -1.05205739860862
N           -3.24089742799573        0.06243782292701        0.29252117144767
N           -4.50630236088818       -0.33334732081148        0.28841788839623
C           -5.12193695413762       -0.75480865954040        1.52341099455049
C           -5.08034696032624       -0.30374978534393       -0.89571441013731
C           -6.47477222854901       -0.67794395298692       -1.23770279597774
O           -4.19537911583999        0.14071866912076       -1.83166219459751
N            0.80019004104841        0.80387882384926        1.50170916285767
C            1.48953387880672        0.76094061422153        2.68315436070066
O            0.94137359963488        1.06123134481303        3.76862033168687
C            2.88170397736405        0.34908593519693        2.58697796897890
O            3.60855035165904        0.28994002163739        3.74495628012000
H            6.68492224963481       -2.07403676402699        0.37204930711294
H            7.22189301370380       -0.40072129835596        0.09790790233856
H            6.65196697488698       -1.38842212043722       -1.27644761160692
H            0.76285717148036        1.64125014729085       -2.82007997295441
H            1.21850467269723        2.59334124383202       -1.39575558986003
H            2.31116257571949        1.33487715995784       -2.00574476766485
H            1.65931260049305       -1.14882294264336       -1.69995007905796
H            0.09167325787955       -1.54452694390478       -0.97496192470863
H            0.16165527739820       -0.79335468863778       -2.58156793378938
H           -1.04637750872360        0.59833036933166        0.28720774114544
H           -4.38738619964411       -0.66209560449554        2.32064251863448
H           -5.44670732942876       -1.79081135386402        1.43681586802309
H           -5.98585478018461       -0.12737023663140        1.73820230060688
H           -6.66848505730240       -1.72892100797470       -1.01351134819565
H           -7.19307785045235       -0.08171588873038       -0.67172110207994
H           -6.63791596443616       -0.51031271359485       -2.30020120545179
H            4.51779519930972       -0.01109290670767        3.53545887117151
