21
 energy: -30.769494628153 gnorm: 0.000742265829 xtb: 6.5.1 (579679a)
C           -0.56727914813412       -1.99608565777327        0.34878765048110
C           -0.54085960003089       -0.50856024507764        0.82887327809176
C           -1.92750325267583       -0.00273330389317        0.77868198233482
C           -2.24819750888687        1.04723994562805       -0.01842109603298
F           -3.50378589530671        1.47328106886549       -0.08097596528538
C           -1.28806230321685        1.73109835237835       -0.78612913500110
C            0.03862908167433        1.34197102638692       -0.73186366911713
C            0.45134610525551        0.28348859372923        0.06555820564912
C            1.89307298385782       -0.04653833830723        0.18399442299331
N            2.68425715287162        0.56076201191954       -0.86125129172307
H           -1.27377590170045       -2.55384617856863        0.95925785000153
H           -0.87237492971728       -2.03726776958123       -0.69394738060369
H            0.42351902226041       -2.42842027486663        0.46006195706570
H           -0.22065427249166       -0.56958982901441        1.87985905755786
H           -2.68110695740265       -0.52171795463227        1.35786090130807
H           -1.60126095543797        2.56863942487047       -1.39902415746996
H            0.78511653400024        1.88840624190900       -1.29806735619562
H            2.23364819846217        0.34144286547094        1.15348972607224
H            2.03996772748631       -1.13578990335667        0.22696805656579
H            3.66307641853097        0.46802709072223       -0.63318121474083
H            2.51222850060190        0.09619383319088       -1.74053182195138
