42
 energy: -82.886411213458 gnorm: 0.000906631485 xtb: 6.5.1 (579679a)
C            5.42486155815446        1.78503534953692        1.79844427093457
O            4.33161711767089        1.26446598935381        1.03662025905572
C            4.41501238190918        1.40741029104004       -0.28820750131217
O            5.34854396320507        1.94055869635526       -0.83869540558078
C            3.22560782191204        0.82624270213241       -0.98123976470068
N            2.29868939302008        0.27690030708083       -0.19464217128881
C            1.19541947521247       -0.23370356517336       -0.69454247682322
C            0.23210720789306       -0.89978102396691        0.24472403806809
C            0.69191807917394       -2.37581344687535        0.34185445551209
C            0.29415912678879       -0.23979050237154        1.63574732419845
N           -1.10200674332682       -0.82299135965258       -0.27685719101538
C           -2.24531100684532       -1.50048194640471        0.33628891869894
C           -2.82066828953444       -2.42988361933102       -0.83225932924410
O           -2.04571079824778       -2.15297298398018        1.41538315511687
C           -3.33780251619390       -0.41534768786945        0.42423866679987
N           -4.21813314081395       -0.26286101674085        1.35101934639725
N           -4.98761743225969        0.80468727507021        0.96650503784560
C           -4.53046996997164        1.21574062488592       -0.17052340753474
C           -5.01783989238985        2.34439955935326       -0.99304088956997
O           -3.47541125351324        0.47763295848252       -0.57617618008258
N            0.95144330114789       -0.23895273127541       -2.02246024195470
C            1.82044170204375        0.27433943695021       -2.98195556618465
O            1.54103017344045        0.20399823598249       -4.15634517831072
C            3.09758527825990        0.88013092039783       -2.42619137584154
O            3.92167905714839        1.36103888679523       -3.18814202851287
H            5.19637499960131        1.58825977805038        2.84353155573159
H            5.52356458057609        2.85959668575116        1.62627008377077
H            6.35358873205819        1.28578920428505        1.51148300768071
H            0.58753557743444       -2.85134106811284       -0.63076388891246
H            0.08545780268344       -2.90530001666417        1.07245221131074
H            1.73528636288571       -2.40381286193869        0.64989905847262
H            1.32169912157981       -0.26689725561509        1.99329694722359
H           -0.03710439395513        0.79413761110074        1.56468968419547
H           -0.34794209486513       -0.78063179872328        2.32762284538748
H           -1.31849907243436       -0.12542638102669       -0.96938419473281
H           -2.06809793424354       -3.18681510127745       -1.02813268594954
H           -3.73387573547726       -2.88611711700573       -0.46154803012705
H           -3.01096461617240       -1.83542173859058       -1.71823547756743
H           -5.96317715597331        2.70432107790075       -0.59304083759809
H           -5.15027695703372        2.02250044953566       -2.02536193417911
H           -4.28975225105784        3.15642145601437       -0.98323388442347
H            0.10703644051239       -0.65926127345611       -2.37996422494948
