43
 energy: -83.163557507558 gnorm: 0.000217590427 xtb: 6.5.1 (579679a)
C           -1.51814444767947        3.92176270257098        0.22459686045210
O           -1.38852523803925        2.49288557024960        0.08949310009725
C           -2.43459490386822        1.75508813706251        0.12528832131315
O           -3.57708994983418        2.33176387506249        0.29150542248539
C           -2.26877235127674        0.32822227188579       -0.03552556234230
N           -0.96788137619759       -0.08474840560897       -0.17739406143257
C           -0.71778389609844       -1.33837286657958       -0.35768779998314
C            0.70770416332915       -1.81057822847879       -0.53920094470401
C            0.92036264884288       -2.17378102410105       -2.01840923552122
C            1.01225603647645       -3.00383847646468        0.37749546936560
N            1.56367967672118       -0.68774093906991       -0.17526719854722
C            2.91244292376151       -0.72938275689761       -0.20907881029508
O            3.58236755385207       -1.67012314467109       -0.59462926685745
C            3.48925393945909        0.53820424275562        0.30527698911261
N            2.82174666828887        1.56252413328701        0.74685839635982
N            3.74007807842128        2.48706098010883        1.14376830904275
C            4.91021144375878        1.96687654980822        0.92026331843219
C            6.23371897134188        2.57212594183079        1.18673641493205
O            4.81613683072872        0.73845719668678        0.39126466641264
N           -1.71666757175543       -2.26282910529053       -0.42712997287685
C           -3.05901298729944       -1.99211085657251       -0.27967178758453
O           -3.88574694488342       -2.87811977099499       -0.34132595535666
C           -3.33345137551832       -0.55962789434738       -0.05757093068757
O           -4.56239111352999       -0.09301922202834        0.10820354765676
C           -5.73151058091928       -0.93913443132269        0.12540535893202
H           -1.88773265456850        4.15463612204555        1.22374657038878
H           -2.21572873352745        4.29531286973183       -0.52548379346313
H           -0.52184424261824        4.32958039963050        0.07033632658234
H            0.74269180525627       -1.29970427876344       -2.64262777893270
H            0.23024011372267       -2.96410533637353       -2.30537669923976
H            1.94188743634782       -2.52113781045525       -2.16509342477241
H            0.83371105076416       -2.73034508933949        1.41586632283100
H            0.38293890164097       -3.85136930332513        0.11623727487822
H            2.05428325814875       -3.29581510995371        0.25667252939596
H            1.10287154685090        0.15159883739227        0.15176034484258
H            6.79787984925886        1.94252420743392        1.87496869786538
H            6.10282982568934        3.56068435388646        1.61998792899886
H            6.80080300007692        2.65107147031235        0.25921206720383
H           -1.50198473157694       -3.23881513425005       -0.58689153756484
H           -4.34716093768316        1.72218062140654        0.30304801230953
H           -5.84233539299010       -1.44551667115943       -0.83367543469072
H           -5.65364100160802       -1.66713563570686        0.93328597422831
H           -6.56809829127111       -0.26520699139635        0.29902097072669
