46
 energy: -87.039819359821 gnorm: 0.000600961087 xtb: 6.5.1 (579679a)
C           -6.39112176202223       -1.84979889952813       -0.06790705876038
O           -5.28053602551875       -1.05635656857548        0.34940623509308
C           -4.10248557906687       -1.31342209580199       -0.28834648024097
O           -4.04156640129886       -2.17080920495868       -1.15109019213691
C           -2.98366412642067       -0.48591736680361        0.16431640721820
C           -3.01558109699531        0.47654791370230        1.12499578205596
O           -4.10809380968054        0.84854514976805        1.81430941589435
C           -1.72946349201238        1.22900526184819        1.59761183560450
C           -1.06177708423383        0.28588920081366        2.66779950682545
O           -1.88536625678597        2.44765661535470        1.96724230490653
N           -0.74810653647049        1.11524095950868        0.35377667317379
C            0.00182522239870        2.34008185472294        0.11390289217731
C           -0.80643945953280        0.05880004747789       -0.47958699193188
C            0.36099079635904       -0.27772686231754       -1.41732879316003
C            0.30404266155922       -1.76697511831548       -1.78872678787888
C            0.28829545921245        0.57041795105257       -2.69385402406257
N            1.60995905813337       -0.03719060288943       -0.68218608032965
C            2.84229777081858       -0.14653836028141       -1.20298080831521
O            3.11768993752480       -0.37192359550246       -2.37083073740437
C            3.87510466388967        0.06856303818906       -0.14942326199959
N            3.64464252388104        0.30831204030449        1.10606131615748
N            4.85981967213232        0.43886140162617        1.71174216150228
C            5.75289317613415        0.26959542695277        0.78615980933110
C            7.22441494192485        0.31366340410985        0.93351012330108
O            5.19517285945151        0.03203217694418       -0.41103680850457
N           -1.79692150070818       -0.77309114019868       -0.53565079058016
H           -6.61112859734693       -1.67035374896795       -1.12388347723270
H           -6.17561103156019       -2.91193278769958        0.07742753059512
H           -7.24054846287476       -1.55450809127708        0.54431610018412
H           -4.90818660717033        0.37446935704319        1.53504356642319
H           -0.10263519342311        0.71324482355662        2.95428784436121
H           -1.70975240580822        0.24470802862747        3.54179544398366
H           -0.91079384906627       -0.71802385894610        2.27646144397198
H            0.92295023123007        2.14898672434550       -0.43151446053215
H           -0.60825388659230        3.05131915542100       -0.45412390180510
H            0.25339279044918        2.79516969612046        1.07483332432516
H           -0.62576984832681       -1.97630620887667       -2.31557983986301
H            1.14532087119998       -2.02330737369466       -2.43052655576967
H            0.34025935960875       -2.37801983779601       -0.88775159571446
H           -0.70436731566243        0.46145345008456       -3.12999150822201
H            0.46352944952298        1.62271221229677       -2.48149150811674
H            1.02734073428294        0.23459951754228       -3.41929719090439
H            1.53844790171508        0.05576927793879        0.32345948126073
H            7.48273011692074        0.42957574356626        1.98300522877254
H            7.63135945308134        1.15060608381732        0.36604820143427
H            7.66568767712008       -0.60362879030740        0.54559722490675
