46
 energy: -87.037054553947 gnorm: 0.000446909261 xtb: 6.5.1 (579679a)
C           -5.51635500231484       -0.86361980657509       -2.28710984459062
O           -4.43281967813194       -0.45572298113891       -1.45859132517076
C           -4.51653062975010        0.79686502625157       -0.95141448482620
O           -5.46516473251600        1.52458355231860       -1.19180878635848
C           -3.36316184548629        1.13719599255767       -0.10943468789832
N           -2.40295222047209        0.17119070240892        0.04632868212724
C           -1.35257015661671        0.35757072591757        0.77839058956378
C           -0.39715077893741       -0.83025186582802        0.89060359739358
C           -0.71673601804001       -1.56265470395265        2.20651461655655
C           -0.64944533472604       -1.78156072283959       -0.29426384969770
N            0.97906425072389       -0.33346640120776        0.86520527885001
C            2.05157147004282       -1.29804466266256        0.79673396709792
O            1.93112942100782       -2.45695175980888        1.28836416232209
C            3.17323426556275       -0.83430866911945        0.15382834606145
O            3.34031413675996        0.47507865445524       -0.33840867697842
C            4.62582424095293        0.52743033701845       -0.72761576599083
C            5.13562705334610        1.78624456678546       -1.33305822644693
N            5.31709290647914       -0.53157221721724       -0.54199192126571
N            4.46502260087384       -1.47384677392394        0.10278798351584
C            4.49214161221195       -2.75375127169402       -0.61657544117700
N           -1.14795075190713        1.53572770554949        1.46414353427186
C            0.00506735679923        1.80878466072887        2.32213936684796
C           -2.04140015210457        2.59674027307526        1.34068600418067
O           -1.85616982074602        3.67766585719261        1.91655459173504
C           -3.19571117987801        2.35569665263089        0.52132642163028
O           -4.07162116798511        3.38177329595151        0.41992293778858
H           -5.59198622998249       -0.21633515440652       -3.16584971121042
H           -6.45908218597024       -0.82322609041381       -1.73348845328595
H           -5.31097937659837       -1.88695762682157       -2.59670783843054
H           -0.48465066202908       -0.94023182078816        3.06901227893432
H           -0.13811602693748       -2.48231732837524        2.27595187466098
H           -1.77793517084161       -1.81044938242650        2.23009517591517
H           -1.68234473773667       -2.12654667133683       -0.28545234103993
H           -0.46062505530318       -1.26567684743818       -1.23505224560409
H            0.01105406540003       -2.64385016221655       -0.21935063406640
H            1.09199276581530        0.35578245072204        0.12870443879699
H            4.53341543860957        2.05168040134643       -2.20130335452836
H            6.17176479468599        1.65440167575996       -1.63526850636018
H            5.06983040705469        2.60252012395199       -0.61403903427344
H            5.51303933191291       -3.13213607484964       -0.60984078158849
H            3.83744660898959       -3.44423961260369       -0.08570128473618
H            4.14968177893704       -2.63545649666804       -1.64884965051498
H            0.80566773777224        2.25651074517815        1.73250314129113
H           -0.30628001016810        2.51234432889672        3.09472830233320
H            0.36568098158245        0.89556044547146        2.78442743549932
H           -3.72792430033984        4.12182793014306        0.95168311866744
