42
 energy: -82.971004821021 gnorm: 0.000547193647 xtb: 6.5.1 (579679a)
C           -4.25868323011321        1.77830757343547        0.40740975848531
O           -4.50162943486884        0.37217308807546        0.47367721215331
C           -4.25455231559869       -0.38732152618377       -0.62664133251910
C           -5.24214461902959       -1.52193643178084       -0.74576995277237
O           -3.79111467941287        0.22944501969024       -1.76337417597166
C           -2.79269793291665       -0.54496947031797       -1.11499449481970
N           -1.84026624390850        0.20094904795538       -0.39231237474644
C           -0.73650437183755       -0.33315440837061       -0.05388943003706
C            0.25235187919883        0.41204912236675        0.81754396409717
C           -0.03479102173947        1.91537033820593        0.80295104661951
C            0.14499078694713       -0.15952052969511        2.23950562201457
N            1.58782283823687        0.15666653625572        0.26807898680111
C            2.72437515965684        0.61466959582728        0.84614884133802
O            2.80055356366797        1.15682783320121        1.93198818968592
C            3.89615623683496        0.34981084509728       -0.02616483763651
N            3.86730440474866       -0.19621093389472       -1.20505358123705
N            5.15330495747308       -0.23446274278541       -1.65144497154225
C            5.88526587325661        0.29303360266834       -0.71648134729759
C            7.35157265289432        0.48920070200662       -0.71814014236921
O            5.14858083794012        0.68177617564014        0.33416803199265
N           -0.38003128504653       -1.62372809454586       -0.40398080901290
C           -1.08632721538841       -2.42065694044446       -1.26198083211996
O           -0.69224719197813       -3.51702479694557       -1.59183978395771
C           -2.38527140760113       -1.80284245593168       -1.77703521700237
O           -3.04133058831265       -2.36396306591389       -2.62768104316930
H           -4.64238565346008        2.19413981194740        1.33820788781287
H           -4.78379435949707        2.21613798550829       -0.44638066968433
H           -3.18851459960829        1.98419926698954        0.32176797330516
H           -5.06108734702517       -2.10778274692810       -1.64214313752322
H           -5.17740039426228       -2.15461930646783        0.13695686549418
H           -6.24149063660378       -1.09192311176957       -0.79534619750521
H           -1.03573353764827        2.09838457706405        1.18898241668067
H            0.02871499792642        2.29864369514715       -0.21398860502420
H            0.68769410172236        2.43469291430084        1.42975040067895
H            0.80010012569210        0.38648777400685        2.91487808809621
H           -0.88242571064686       -0.06414144891670        2.58704248878071
H            0.42614721049477       -1.21094438750685        2.24292080357659
H            1.65360492119974       -0.15120393453195       -0.69088226655971
H            7.58418998868956        1.54896468664036       -0.61361845899864
H            7.79882697249077       -0.03855410975922        0.12413597286959
H            7.77032923323855        0.11368439270127       -1.64845720581553
H            0.48853603419237       -2.00064914204646       -0.05504668314861
