33
 energy: -58.572462361278 gnorm: 0.000491940377 xtb: 6.5.1 (579679a)
C            3.23977720506156        2.71010170937451       -1.26020505277532
O            2.11072618697168        1.94692886986099       -0.87864689425189
C            2.34531666355337        0.58039858966667       -0.73496370336734
O            3.49742481997629        0.13817329310344       -0.94706405381066
C            1.23011712836163       -0.17437169630815       -0.36528597099042
N            0.02511987668204        0.43902083518395       -0.14133709879144
C           -1.02417516334519       -0.22855018211116        0.15893739113740
C           -2.34632360030806        0.44921571444013        0.44716842408501
C           -2.13719414356822        1.96605167194433        0.48537349119757
C           -3.38477485190241        0.08621223381637       -0.63245878446530
N           -2.82253160066576        0.02073363942497        1.76890348727357
N           -1.01255770920895       -1.64269135720652        0.20123764283642
C            0.06967761276812       -2.40141212418698       -0.08935415561014
O           -0.03894543230398       -3.61468041629851       -0.24711895957394
C            1.41819180887587       -1.66503706415369       -0.11555674206020
C            2.08210300464702       -1.91157118076949        1.26430359515201
O            2.21887485579404       -2.26711759441400       -1.12499013753108
H            2.92303657598662        3.75297844482263       -1.31107433816787
H            3.61754643941855        2.39761215329523       -2.24143364593568
H            4.05109551022125        2.61291166671100       -0.52860062226084
H           -1.44383687852817        2.22373113346471        1.28682479631438
H           -3.08507950439623        2.47235808634959        0.66212881740131
H           -1.72128224754842        2.31152080648327       -0.46141864506623
H           -3.55662780877959       -0.98902600962079       -0.64747483880976
H           -4.33107186686773        0.58137415420385       -0.42023371054158
H           -3.03355305724799        0.40086967728399       -1.61548429479679
H           -3.01193205358508       -0.97346225340047        1.75294820583792
H           -3.70213623497568        0.48061946317739        1.95926162755275
H           -1.89312057541042       -2.12489445369888        0.26382927388881
H            1.46033664495402       -1.49546147255686        2.05575122815325
H            3.05801435837923       -1.42831775503946        1.28413127753464
H            2.20988210814085       -2.98131444461575        1.42848927739620
H            2.98790392884974       -1.67290313822549       -1.25658688695529
