47
 energy: -79.490812140490 gnorm: 0.000406270639 xtb: 6.5.1 (579679a)
C           -3.48703498379128        1.28935997971063       -1.61037109870482
N           -2.42330639007246        0.90099538742388       -0.67936732216909
C           -2.22192763295314       -0.31903379540051       -0.18750791333085
C           -3.22185311290140       -1.44991567479381       -0.25737498998927
C           -2.59441512068067       -2.74493240909843        0.27456384495419
C           -4.42093568460281       -1.04453008569583        0.61881151416770
N           -3.67423452614750       -1.61812612668419       -1.62894972774385
N           -1.03136829347650       -0.60875834102871        0.36943379894403
C           -0.17293466953112        0.26932739982412        0.77198247124939
C            1.18152176243203       -0.30396532318708        1.14914496068566
O            1.32070249666866       -1.51370405099897        1.20904260297813
N            2.15183494069244        0.58154386308540        1.39692129289537
C            3.50786776181047        0.12593027535972        1.70349580730426
C            4.28044641423040       -0.08745670183194        0.41850620385732
C            5.07514977624039        0.93176353116538       -0.09946687757215
C            5.75929400190504        0.75326670815225       -1.29405527855776
C            5.62569236583692       -0.45642242492007       -1.95150740293053
F            6.27756368529997       -0.63474004449121       -3.10959788130357
C            4.84479300105756       -1.48922993283132       -1.46347862480893
C            4.16865878527842       -1.29501783830149       -0.26785871044078
C           -0.64133757683871        1.68380778287007        0.87809139592696
O            0.40144928211914        2.60328156151933        0.88879259927033
C           -1.58892935392327        1.98119066560132       -0.27896934599917
C           -1.51026708717759        1.83172794712236        2.16244092035518
O           -1.73301293580385        3.07549845379478       -0.73861816158453
H           -4.21329840024741        1.89453872718437       -1.06985191304864
H           -3.95101191839402        0.39354538681401       -2.01458454103091
H           -3.03580843738190        1.88569638776822       -2.40269376961955
H           -1.73430797466805       -3.02114444306937       -0.33294188899806
H           -2.27230245793194       -2.61199427052233        1.30619739832990
H           -3.33297864194525       -3.54258462739765        0.22879266576451
H           -5.13461425638375       -1.86639499909070        0.63689473222998
H           -4.09256025554731       -0.83691437233355        1.63588911267251
H           -4.90980625987404       -0.16139490797490        0.21363432923097
H           -4.49236318575659       -2.20984771046808       -1.64059850628824
H           -2.94933790771494       -2.05132850215433       -2.18390514622642
H            1.99898695675242        1.57054699195557        1.28093010736165
H            3.97882935236966        0.89202836745457        2.32159183360830
H            3.42947914513475       -0.80799742741858        2.26706398797794
H            5.16173212102604        1.87193487795583        0.43125149036564
H            6.37966801447563        1.53704892474053       -1.70866706311666
H            4.76613203091593       -2.42052872865886       -2.00927321052824
H            3.54627517402240       -2.08611370013030        0.13319106010093
H            0.08672015908265        3.48769667638656        0.64572899054679
H           -1.96911759809782        2.81785959699833        2.16231936491978
H           -2.27989193262963        1.06481874751057        2.19473013759162
H           -0.85384063288440        1.73866819808014        3.02474775070214
