20
 energy: -37.598331252213 gnorm: 0.000848265703 xtb: 6.5.1 (579679a)
C           -2.90938715535644        0.91683104311006       -0.25190785832909
O           -1.52365281987902        0.49637831840066       -0.19470366359582
C           -1.25514688368979       -0.72954931873140        0.09117373579379
O           -1.97147582236293       -1.63606817479226        0.36961702191394
C            0.33902635566377       -0.96071425884891        0.08002510080725
C            0.64525312601610       -2.41756900932100       -0.23426219339266
N            0.75975404578664       -0.49111286540517        1.34864541553472
N            1.43412084313081        0.56315281819040        1.21260143231434
C            1.53849924697522        0.82536712921492       -0.13790608561623
C            2.24035246595206        1.95853814145772       -0.72189577592094
O            0.93091553592023       -0.06447342384390       -0.82606048841029
H           -3.50907107549958        0.30310147272714        0.42020332461576
H           -3.25445362185728        0.81082580078898       -1.28066988041100
H           -2.91819578269155        1.96137599002962        0.05058130201024
H            1.71671102509649       -2.58307256805147       -0.15140877756009
H            0.10976209418812       -3.04591877618871        0.47476496690693
H            0.31484997875862       -2.63881794571120       -1.24665636003273
H            2.03683741376113        2.03582774748075       -1.78747725076075
H            1.96085452266516        2.87363667230054       -0.19750267621217
H            3.31444550742279        1.82226220719341       -0.56259428965507
