47
 energy: -79.525251717459 gnorm: 0.000541059585 xtb: 6.5.1 (579679a)
C           -3.35755963167280       -2.49301493558489        0.93078065535582
N           -2.26844742527607       -1.57857782714936        0.55604004018258
C           -2.44624205076572       -0.34874147320620        0.02582144157469
C           -3.77202120218020        0.40768060197748        0.20398900188091
C           -4.76630073981552        0.08522368368642       -0.92045742271268
C           -4.40043504786134        0.12996394345850        1.58773249193089
N           -3.47313779185495        1.83426521077511        0.16009109990705
N           -1.39576616047578        0.23564810468886       -0.55943849917845
C           -1.56365154389195        1.32979431662561       -1.53546946221520
C           -0.09152021766210       -0.22524023472625       -0.40909817375830
C            1.05223929250256        0.66321521497118       -0.85957486907050
O            0.99280838435725        1.87800150991771       -0.76136097230871
N            2.10752369690073       -0.00493192667528       -1.33540769094013
C            3.30736306309404        0.69684026694433       -1.77253702050290
C            4.42412689323834        0.62988995755088       -0.75257453996869
C            4.20887345851827        0.18615986821984        0.54797554365261
C            5.25141295298871        0.15311533084626        1.46442103701356
C            6.50189031359435        0.57440980956731        1.05324695126422
F            7.51429796596827        0.54664847215082        1.93331630344034
C            6.75092576447560        1.02080651869428       -0.23260741588020
C            5.69891729037834        1.04501533991042       -1.13596424690826
C            0.10967868355750       -1.38320781187300        0.27004609923088
O            1.32353399589184       -1.88760688616465        0.51079568001418
C           -1.01322447883184       -2.17301642148957        0.73479381428504
O           -0.88478331462033       -3.27016334472700        1.23935704056124
H           -3.48762195848324       -2.48880991326578        2.01134235478372
H           -3.05450118737575       -3.49139121037612        0.61425015822746
H           -4.27328844966684       -2.22062201875123        0.42372550281946
H           -4.39951038171583        0.45336877940186       -1.87674065789389
H           -5.71426613197351        0.57289089918396       -0.69884592000886
H           -4.93610620295033       -0.98559509010022       -1.00419898410831
H           -3.63181902887574       -0.03229735518272        2.34044125897895
H           -4.97660372038896        1.00961131164212        1.87137644016243
H           -5.08421400100265       -0.71408851456213        1.57420115044478
H           -4.33743436146234        2.34370339520538        0.03866611878932
H           -3.06274658096662        2.11905794596086        1.03964511934643
H           -0.84838011877314        1.16481787493665       -2.33894957918339
H           -1.37530172659679        2.28892602886151       -1.05853114990013
H           -2.56711582133266        1.30297991331697       -1.94014032035678
H            2.10367262201807       -1.00859335376286       -1.38496844005066
H            3.03249460966323        1.74139180904415       -1.95624726807455
H            3.63406706665986        0.25468533096857       -2.71762620767112
H            3.22374194850446       -0.14546755245609        0.85080841558257
H            5.09536953001398       -0.19422434383503        2.47721906176276
H            7.74460076596635        1.33910076670787       -0.51928484272897
H            5.87095107302990        1.38861391024917       -2.14911229961994
H            1.23350890515645       -2.75023690157617        0.95873220184735
