16
 energy: -33.418285599987 gnorm: 0.000449828551 xtb: 6.5.1 (579679a)
C            2.99436711431215        0.85519348951455       -0.20272774785604
O            2.51129099660501       -0.41010896252759       -0.68540433791051
C            1.28443773665290       -0.77809902905478       -0.67748879037086
Cl           0.96168235390043       -2.29020233976199       -1.28998574491071
C            0.22930531411185        0.03379091410027       -0.18188610495862
N            0.28510812247386        1.25101157120311        0.33012940987879
N           -0.94984233574083        1.60223213690634        0.64871206611579
C           -1.74001779146806        0.59297059923315        0.32707290951407
C           -3.19662305589394        0.50566890202833        0.50669040488171
O           -1.04717322305580       -0.40904116891896       -0.19575263873247
H            2.73756744449898        0.96501674634226        0.85150197478484
H            4.07226908036798        0.82802747680478       -0.34796587179285
H            2.53637661899742        1.66168005201124       -0.77659927064306
H           -3.41199966948775        0.01036341348432        1.45641450551522
H           -3.63009778006847        1.50350016255190        0.52889419289170
H           -3.63664992620574       -0.08931296391690       -0.29160395640699
