42
 energy: -83.593513370288 gnorm: 0.000437364108 xtb: 6.5.1 (579679a)
C           -1.57921004662074       -3.49047824792263        2.12331922591055
O           -1.44939233009372       -2.29982880340282        1.38072659037331
C           -2.68035164069934       -1.73585096320959        0.95159999317139
O           -3.72828575368456       -2.32984290275165        1.27126046793633
C           -2.51097519488338       -0.55335315986332        0.20988846590647
C           -3.64272515006975        0.21904161433876       -0.35262499769845
O           -4.85763011656605       -0.12734005621254       -0.21905188574317
C           -3.25879048499515        1.35816781153537       -1.06552547646211
O           -4.12484627862573        2.24004078507564       -1.71214812120241
C           -5.08163639277215        2.88889876608364       -0.88377794260890
N           -1.90964432438057        1.76958408088765       -1.13680441239668
C           -0.92742057115285        0.95416063689632       -0.63569101966880
C            0.51362860970816        1.40216722685313       -0.84382754179601
C            0.83837675341608        1.41189513874911       -2.34995855375489
C            0.71859796760577        2.80337769974643       -0.24372950620753
N            1.35444202522948        0.44402837803614       -0.14502168252216
C            2.72984956129028        0.43778537282470       -0.21715603013465
O            3.39863427932246        1.38514855943401       -0.68347733758526
C            3.29138893887113       -0.75951963844441        0.34655210016767
N            2.61570147766140       -1.79702993860528        0.83860824197509
N            3.54879490029044       -2.70888481754211        1.24936114425565
C            4.71334166867348       -2.20759921126991        0.99800484705926
C            6.03417001687245       -2.82588841497827        1.27199416521480
O            4.65040778019373       -0.98097924200773        0.42791214572041
N           -1.18829892007979       -0.12769584499784        0.00342307972473
H           -2.06157032736403       -4.28387039825681        1.53578044719587
H           -0.57544127221621       -3.81805254339158        2.40324338029643
H           -2.17006541189076       -3.33594976711323        3.03650325779118
H           -5.78637689768687        2.16635781314992       -0.45048084006805
H           -5.62899713166094        3.58943151986538       -1.51766452066261
H           -4.59531443005444        3.44686722189795       -0.07283353059158
H           -1.69763919397998        2.54746171487233       -1.73369997836151
H            1.85720589969412        1.75851159825427       -2.51626677271606
H            0.15597908742688        2.07944690841583       -2.87308627832951
H            0.73295858387435        0.40791790535178       -2.76113029775380
H            0.49557317523861        2.78668220747223        0.82324386497281
H            0.06056118304209        3.52104118515016       -0.73007183039461
H            1.74915544146605        3.12560141289977       -0.38501118053094
H            0.88859115138103       -0.42382696822228        0.12128062756017
H            5.89196833159741       -3.82589040349307        1.67465811001453
H            6.62268283604946       -2.88525859659086        0.35649506634384
H            6.59260020058419       -2.22647663950789        1.99173251560205
