38
 energy: -79.622816188811 gnorm: 0.000659444194 xtb: 6.5.1 (579679a)
C           -6.09402580135752        2.08055321739086        0.60958968824836
O           -4.97814832855894        1.64799923256658       -0.15546783784143
C           -4.01727584631950        0.97633941938646        0.52831309526053
O           -4.13884373042701        0.76815636447568        1.73031749687621
C           -2.88050760287780        0.55313878408216       -0.27545858654574
N           -1.92285538409916       -0.11166625255650        0.46811311899336
C           -0.85482549152820       -0.55297370346314       -0.08064116135578
C            0.16143930208237       -1.32999330935840        0.73033733139632
C           -0.11802976213449       -1.13802375833103        2.22439454676427
C            0.08578155313208       -2.81348936740194        0.33800349963242
N            1.49747734416040       -0.80233659222146        0.40498488841065
C            2.63249807184533       -1.28282461627077        0.94235423857115
O            2.71347209291376       -2.21909045620389        1.72318225823375
C            3.84382656400402       -0.54978882027719        0.48553374684701
N            5.07270376510047       -0.75556512111140        0.84715046295183
N            5.83784758931587        0.15382440019682        0.17859127924181
C            5.02894742384325        0.85796860322958       -0.55010585124470
C            5.36824880416447        1.96703792164139       -1.46807614308582
O            3.75294230133800        0.46514449851521       -0.40129619862350
N           -0.61341108162029       -0.40243989518274       -1.43373343317982
C           -1.47375475667469        0.23813599402223       -2.29071261998642
O           -1.18424793207196        0.33904371071584       -3.47989182163885
C           -2.74606484938147        0.77589130822046       -1.67097154021054
O           -3.56441365564482        1.35595833694251       -2.40751010950865
H           -6.77897572909186        2.57759385828586       -0.07641947547360
H           -5.78057318525256        2.78066662825341        1.39060538681656
H           -6.59511202251375        1.22910954721831        1.08105380768573
H            0.56122210967519       -1.74374061221176        2.82049821752504
H            0.00645708067441       -0.08929574210390        2.49139341631543
H           -1.14454085526849       -1.43437677207085        2.43751694710428
H            0.78118461412566       -3.40304626824506        0.93214884132818
H            0.33100781032563       -2.93306663239821       -0.71593868214507
H           -0.92539538065103       -3.18005642192080        0.51035853371713
H            1.55726209440064        0.00928823536558       -0.18831749705635
H            6.42278452975543        2.21349206790861       -1.36988338465355
H            5.15945509725203        1.67367320099775       -2.49744465249140
H            4.76121003363963        2.84214950932514       -1.23693211890602
H            0.23523421372213       -0.76339349741239       -1.83531868796968
