20
 energy: -38.324831682728 gnorm: 0.000599999292 xtb: 6.5.1 (579679a)
C           -3.39881727727143       -1.42059939782732        0.00641835549582
O           -1.99552330747593       -1.28291363886824       -0.03319826202175
C           -1.54136037227431        0.03906361235718       -0.30829809271104
O           -2.39302931712929        0.93590416057000       -0.54704109652565
C           -0.20043645589483        0.21887063337479       -0.07466133181280
O            0.73244060085453       -0.86446772636914       -0.00720984719191
C            1.87428188904053       -0.35475449091307       -0.47638357485463
C            3.06233338541786       -1.25109031974522       -0.56668117673950
N            1.87347225511081        0.87630296408570       -0.82012890977094
N            0.54144364841010        1.37904472365958       -0.57869753279420
C            0.65896241460347        2.44250343597196        0.43299811791328
H           -3.84453587661557       -0.79205546358926        0.78968375135009
H           -3.61810853447742       -2.46812187165437        0.22421737482373
H           -3.86004661125292       -1.15148784065708       -0.95391945821959
H            3.24251087364062       -1.72595257854805        0.39683887536339
H            3.93767026669451       -0.67516190795156       -0.85707035604969
H            2.88774898651269       -2.03571098170169       -1.30299063366077
H           -0.33981866245910        2.83552923081280        0.61733996587012
H            1.08425492359939        2.06331970976010        1.36783546192904
H            1.29655717096602        3.23177774723351        0.03642836960695
