46
 energy: -86.310325025247 gnorm: 0.000334041736 xtb: 6.5.1 (579679a)
C           -6.15141178626053       -0.87760879706219       -1.78189735595858
O           -5.08543741896822       -0.74629766884604       -0.82512222386653
C           -3.92342287385888       -0.33343443078178       -1.28237382762903
O           -3.67809578197500       -0.06316989139019       -2.42834046639776
C           -2.87208363776151       -0.21873654961232       -0.19326070311609
C           -2.92129739130675       -0.84895256401179        1.06294257785689
O           -3.89036326147081       -1.60729153527871        1.45443679508961
C           -1.84941189055181       -0.60366242264174        2.05258537942959
O           -1.94718577864123       -1.06385169007294        3.17665080662613
N           -0.83421861921705        0.19554691258662        1.62661088889355
C            0.12357608358691        0.59351360023215        2.65591018350495
C           -0.72693701644145        0.67495874958471        0.28605894874390
C           -0.22773541356849        2.11955760495718        0.23063555065556
C            0.36987006242090       -0.31802341204936       -0.57039159512053
C            0.42701974908936        0.18696504375852       -2.00695299828508
C           -0.13475390581788       -1.74849395333594       -0.51019724741582
N            1.64084308066123       -0.13100084314034        0.02274418977198
C            2.23575145057621       -0.93075239479240        0.97670166318077
O            1.69684359661426       -1.86215721209681        1.53149037423517
C            3.62010967692940       -0.50998131938535        1.24424140955024
N            4.49177280538708       -1.06773489297969        2.02873430687868
N            5.62295176899127       -0.32697325180226        1.94846745455551
C            5.38180024600493        0.64531786989212        1.11934952823520
C            6.29349069607019        1.72550544303177        0.69098236182909
O            4.13062237626734        0.58477557496411        0.63852232758458
N           -1.84256835599681        0.52797889472163       -0.50555625361577
H           -7.00547214047004       -1.27143104566665       -1.23557232386763
H           -6.38366317369345        0.10021449172012       -2.20799810950262
H           -5.85025215686711       -1.56245759228032       -2.57669255639270
H           -3.73136715106709       -1.92929907004363        2.37124430483660
H            1.04965439400462        0.91902860120893        2.19667922761073
H           -0.30719428743388        1.41125891369295        3.23501221866603
H            0.29716712465524       -0.26403750047219        3.30627544539186
H           -0.41466273627960        2.52430271938395       -0.76095718913522
H           -0.78955221929052        2.70261824214188        0.95860201743669
H            0.83166374214195        2.19190408093593        0.45735719943826
H            0.81979167516159        1.19920810736956       -2.06182603274819
H            1.09620814265514       -0.46872134270300       -2.56429529875553
H           -0.56251697975434        0.16083878489712       -2.46021537822375
H           -0.96253631366554       -1.87323526234505       -1.20588184714525
H            0.67585278643297       -2.41374683078707       -0.80512882654954
H           -0.46238888428966       -2.03709161053192        0.48589294144292
H            2.20634285796739        0.61981558402162       -0.34531805047035
H            7.23865657007996        1.64587276234196        1.22336798297634
H            5.83588123997027        2.69395163388680        0.89077136987707
H            6.46866004897964        1.65500846877952       -0.38290617010071
