16
 energy: -33.441298889004 gnorm: 0.000887008135 xtb: 6.5.1 (579679a)
C            2.84619598203495       -0.13281472625736       -0.18573470568007
C            1.38026908252615       -0.09033283586968       -0.08201487797244
N            0.56584342562363       -1.06198150236467        0.23822464123413
N           -0.65588819139301       -0.52387011429954        0.19434192814044
C           -1.81919949828533       -1.33299440371322        0.48713896495736
C           -0.57678444266680        0.74618868512983       -0.14703091405185
C           -1.70749318776229        1.70600496503313       -0.30890884263828
O           -2.83262914556328        1.34038170804125       -0.13440051801715
Cl          -1.24429374564570        3.27302747188500       -0.74677751564017
O            0.70167046980872        1.03915211381769       -0.32471257578212
H            3.28262494477596        0.57364097546247        0.52267408671658
H            3.15149692401893        0.17401650365704       -1.18763556505892
H            3.20403826130306       -1.13838574062599        0.02322874564367
H           -2.48264082832932       -0.77153939005484        1.14147980066404
H           -1.47911138642516       -2.25052960059650        0.95834780091612
H           -2.33409966402047       -1.54996310924460       -0.44822045343135
