47
 energy: -80.210522350303 gnorm: 0.000794028339 xtb: 6.5.1 (579679a)
C           -3.64575077063867       -2.30138952310474       -0.45646885007986
N           -2.52064419113537       -1.47230034145008       -0.04206461867984
C           -1.53719612442352       -2.19783115004492        0.76750183997486
O           -1.77809816617294       -3.41792018226733        1.03152341467878
C           -0.48116706121173       -1.45280373746155        1.17042566213718
O            0.54841690816508       -2.05007842403124        1.96340169610217
C           -0.24444677256441       -0.03533258952204        0.76178115126543
C            0.32924154032665        0.81246124032872        1.92061809715575
C            0.79010384014791        0.07946426426297       -0.39633311640367
O            0.70237701462905        0.89136214010523       -1.31287372618129
N            1.80661402286602       -0.80810158527839       -0.32424497055953
C            2.90201827503184       -0.78710425573979       -1.27887600206230
C            4.09102088062110       -0.02075053136513       -0.73817665349264
C            5.31661821805416       -0.65507685052354       -0.55301729812652
C            6.40801456530806        0.04287876503560       -0.05229285652495
C            6.24317421016032        1.37990541655055        0.25732000680266
F            7.29404519312165        2.06412853130977        0.74454769684475
C            5.04176779813150        2.04373323316775        0.08289126654515
C            3.96352981291385        1.33094270084974       -0.41982426380753
N           -1.48170755981092        0.59248025311624        0.31922115206731
C           -2.48837254576573       -0.11056768254382       -0.06830437412950
C           -3.69474900946358        0.71280224068387       -0.54712084056944
C           -3.29985900341290        2.19782267238726       -0.62943756619339
C           -4.85866026491992        0.56852725227944        0.44282022570917
N           -4.13822781440680        0.26472746452702       -1.87159676962328
H           -3.25618209320310       -3.25516367030558       -0.82298748363210
H           -4.31291147676627       -2.51078589479302        0.38684694075853
H           -4.20619111298211       -1.82244536932955       -1.25626685117079
H            0.25165171188879       -2.95446904756914        2.14576573983015
H            0.48482619098833        1.83872462055563        1.58834525808012
H            1.27680992333234        0.39581108661136        2.25907103914832
H           -0.37562507788877        0.81383264907365        2.75177410707106
H            1.91141407048859       -1.40526020312787        0.48426153194692
H            3.18975180716214       -1.81664059278585       -1.50985687060870
H            2.53895518300664       -0.30851463768540       -2.19626861171990
H            5.42720581972385       -1.70426225965272       -0.80213623199285
H            7.36537862709328       -0.43897794816662        0.09433959818579
H            4.95892252813624        3.09363177251834        0.33217221108204
H            3.01201427658801        1.83086929321845       -0.56838091647259
H           -4.13379877731331        2.77641850850989       -1.02464375514599
H           -3.04065850874753        2.57767732851803        0.35856571133106
H           -2.43861000824689        2.32311775430829       -1.28584318015022
H           -4.52248872802746        0.80851003547792        1.45153698698645
H           -5.66114235053675        1.25432216500465        0.17222471252146
H           -5.26084275802860       -0.44255994313355        0.43794363704942
H           -5.01179183962784        0.71998711868450       -2.09256454432056
H           -3.46474840258263        0.55419691278731       -2.57019333162110
