42
 energy: -82.957861974425 gnorm: 0.000970910805 xtb: 6.5.1 (579679a)
C           -5.76413136734315        1.84522539913945        0.77070244544425
O           -4.78140914428219        0.91168148040351        0.29935351706426
C           -3.51801364906740        1.28938698931041        0.37326366093398
O           -3.14643332457190        2.36210991011569        0.77639006825031
C           -2.55130952307075        0.21858182668667       -0.09344385791207
N           -1.38052451733009        0.29871227731449        0.41178001812317
C           -0.49799439152695       -0.76997162634569        0.21305570896696
C            0.67766618216542       -0.85256331820419        1.17032392997682
C            0.93510257120344       -2.31908443880829        1.53429666922817
C            0.43364179078411        0.00398122200977        2.41482515214261
N            1.81865967801354       -0.32121844864918        0.41128297341991
C            3.06567711310767       -0.22281684887946        0.91740719220607
O            3.40731457260440       -0.55711348467372        2.03700415372127
C            3.99120579929298        0.36554262858947       -0.08553649967163
N            3.67713052738519        0.74198920733762       -1.28867589101317
N            4.81506273451813        1.22954273238145       -1.85704060252929
C            5.75124918842516        1.11967523783336       -0.96346242526284
C            7.17152683734635        1.51241711894371       -1.09215723094892
O            5.29305292867960        0.58053491656290        0.17579233141074
N           -0.62941685832604       -1.64605413441252       -0.70471095848788
C           -1.68372114570054       -1.53862843879312       -1.61440628102491
O           -1.57345931838303       -1.89118646375817       -2.75861514771094
C           -2.97826342195315       -0.89554803397519       -1.05430323953819
C           -3.78108765079381       -0.35445109699490       -2.24196808393369
O           -3.78842278668274       -1.82096301081157       -0.37388981038612
H           -6.72678055141303        1.34633176940304        0.69080776745306
H           -5.55343638425791        2.10907681500644        1.80854483680986
H           -5.74536716999078        2.74576743045977        0.15397600443110
H            0.06772840482103       -2.71856940484972        2.05575641188483
H            1.80516104496288       -2.39538684000946        2.18315837114821
H            1.10549781112131       -2.90124254607828        0.62991178335186
H            1.26598316723248       -0.09996269985089        3.10808901803499
H            0.32775752079161        1.05043160925327        2.13372619600692
H           -0.48071274525404       -0.32416191939145        2.90525447297322
H            1.66618302570162       -0.02604259459975       -0.54160127258926
H            7.81104080573845        0.63537109052496       -1.00043218345982
H            7.33469086127394        1.98090345261258       -2.05892614234160
H            7.43866073123366        2.20805752618858       -0.29804820507815
H           -3.24612895013089        0.46395883881265       -2.71871152745807
H           -4.75265727362891       -0.00925550640309       -1.90000346637460
H           -3.92351873188297       -1.15815013522075       -2.96306188442516
H           -3.35720739081339       -2.19690648818197        0.40089902716643
