42
 energy: -82.971698616070 gnorm: 0.000440246332 xtb: 6.5.1 (579679a)
C           -1.92382901670809        2.82732231552059        2.55531355976963
O           -1.89297767216360        1.79770851416196        1.57014352374588
C           -3.08500401186121        1.42005607706102        1.06874821657626
O           -4.12462503859003        1.92998702531711        1.42985550614639
C           -2.94961354250928        0.34312038196098        0.06557435549624
N           -1.67210848441316       -0.09022041829067       -0.19958176875655
C           -1.53117912357153       -1.05180760308000       -1.08237444627366
C           -0.10438036347273       -1.51181927715278       -1.35948075106077
C            0.05428925721740       -2.98037999785511       -0.95435549376638
C            0.22754525328851       -1.29718664926736       -2.83900044938391
N            0.74752260584310       -0.65954190758299       -0.51928735904196
C            2.04006846623300       -0.66598608570849       -0.42705472946260
O            2.72388383417361       -1.52381571177266       -1.13818169685108
C            4.15475466787229       -1.60339636600191       -1.10512840021387
C            2.66827262040746        0.28907892675159        0.46353065370341
N            3.93384744148764        0.47559181655782        0.71824488826764
N            4.01042943858450        1.48798350537619        1.60580522449671
C            2.78819780776912        1.87172855543268        1.85213178439793
C            2.34963923616816        2.94882072500648        2.75999710640835
O            1.89851947938739        1.15047811328490        1.15910643132678
N           -2.47135752210412       -1.68210827956996       -1.77279698091365
C           -3.76330728534915       -1.31013555805391       -1.57159317675900
O           -4.73649740779504       -1.81571299790115       -2.15426959509094
C           -3.99934302057780       -0.23669432538004       -0.59571641334806
O           -5.29153994498067        0.10234516840217       -0.42438670729917
H           -2.37116493420696        3.73647678480323        2.14382633862295
H           -2.49937761886888        2.50390941753838        3.42723447313403
H           -0.89067201428175        3.01600520926554        2.83975246402581
H           -0.07769385645816       -3.08775244551951        0.12117537441897
H           -0.71388833446664       -3.55874694315981       -1.46771269379707
H            1.03471482314346       -3.35954203395195       -1.23295874483277
H            1.20264781334325       -1.70958532421643       -3.08650445470718
H           -0.53641157973929       -1.79931500933564       -3.43261375768681
H            0.21884459798626       -0.23379505817877       -3.07323714314784
H            0.18630773061229        0.00687170709776        0.03951288904124
H            4.59234314695718       -0.65353123913892       -1.41595592500722
H            4.41870533162904       -2.39344582936093       -1.80571756913220
H            4.49409669690641       -1.85296528590016       -0.09860878238770
H            1.74937703114644        2.52990100889333        3.56825274292001
H            3.21771822058391        3.45456301076425        3.17562006665246
H            1.73078376231512        3.66269902775199        2.21655047862138
H           -5.80753849094899       -0.47716294454877       -1.02385903883946
