46
 energy: -86.317566306304 gnorm: 0.000628073082 xtb: 6.5.1 (579679a)
C            5.16769337260063        1.51352998368562        2.58725653824558
O            4.14566893166478        0.99813850333018        1.72720857175700
C            4.33937111416293        1.15205820881017        0.41725870127418
O            5.31686910715068        1.68462576337464       -0.05183762942871
C            3.21348718150364        0.58746733608641       -0.38449994397509
N            2.17567588947150        0.04293425313309        0.32007475110324
C            1.15296365346204       -0.48126028433749       -0.27040074652539
C            0.09569226458613       -1.06740145220489        0.65315913877689
C            0.17456070176861       -2.59839018143870        0.64810502722748
C            0.30195969663114       -0.53435587383991        2.07549536411417
N           -1.23137500906931       -0.59339182130012        0.18283949246169
C           -2.36159032567183       -1.02327519561893        0.70946081455315
O           -2.55496643515185       -1.83567794257153        1.56994588165512
C           -3.65977225148013       -0.37041701471971        0.00790276422469
C           -4.44030461307922       -1.53071186698417       -0.60799166370759
N           -4.33785698287152        0.35437659207429        1.00188006138004
N           -4.35959088638819        1.58562549029732        0.70040535630651
C           -3.73152980612303        1.73152550874807       -0.50317083788621
C           -3.54465518460049        2.98956343502797       -1.21646578659880
O           -3.30394526911385        0.59887244712948       -0.94481961034157
N            1.05464399844804       -0.54218636374743       -1.63706706627101
C           -0.04543288595596       -1.13157420586011       -2.40178741250691
C            2.03171589926755        0.01891252511567       -2.44632583339234
O            1.94362201034589        0.00928020945148       -3.66700822325724
C            3.17034058334392        0.60419614540297       -1.75203288132387
O            4.11526771204893        1.12916477900192       -2.53186678641296
H            6.13715559419994        1.08599047603330        2.31901690378064
H            5.21429079742430        2.60182267207791        2.50014721206586
H            4.89398202644842        1.22737304774920        3.60070839365789
H           -0.49881500153348       -3.01250219181346        1.39592170533382
H            1.19453109211466       -2.89322932918885        0.89184795465811
H           -0.08635104201577       -3.00885506279784       -0.32368405282754
H            0.26212870640297        0.55322485177552        2.07525759119707
H           -0.47522999872765       -0.92498825688702        2.72964176805526
H            1.27527418881774       -0.85234539321326        2.44541761022835
H           -1.25342476832497        0.14628089581378       -0.49740264968190
H           -5.35009585828429       -1.14077226967170       -1.05912765148461
H           -4.68100416891096       -2.24270371765423        0.17945588421225
H           -3.82810284158381       -2.00785042250703       -1.36927211736867
H           -2.90627240628031        2.85096745850762       -2.08559417610930
H           -3.12812483195370        3.73868581468130       -0.54036902728526
H           -4.52387139015261        3.36090678201587       -1.53329359068125
H           -0.68700061135572       -1.72894673067939       -1.76839133252036
H            0.38661551276923       -1.75225241237191       -3.18710102244270
H           -0.61914465186107       -0.32733507384063       -2.86047508356021
H            3.84494718585049        1.03490088394947       -3.46393436066878
