46
 energy: -87.046727454087 gnorm: 0.000276391595 xtb: 6.5.1 (579679a)
C           -5.77110515184889        0.87100636700198        3.25170099775002
O           -4.90912953125586        1.04290404838260        2.13123630773890
C           -3.88899923666241        0.16416290285043        2.02820593788551
O           -3.71687101374266       -0.72305756770772        2.84937679165323
C           -3.03359178090989        0.38746518910379        0.85678923998972
N           -1.98256688482991       -0.48871134411008        0.74587966586909
C           -1.13162788584326       -0.42142596131184       -0.22313678969280
C           -0.02623411739357       -1.47397784144815       -0.22536719021429
C           -0.18410005418651       -2.41151932925585       -1.43215413806124
C           -0.10914845777963       -2.30277480624281        1.06672411235031
N            1.25724890475172       -0.77996738633651       -0.25431549073271
C            2.46124644267632       -1.36884991224250       -0.34244790189354
O            2.67010778443509       -2.54660827431123       -0.59441901471580
C            3.59863336654871       -0.31206120485809       -0.11351144549613
C            4.72400699278453       -0.95448004880909        0.70531777388445
N            3.03274193457252        0.86484035836908        0.52487590124037
N            3.16901804290070        1.88536080571358       -0.37232652298842
C            3.75247162721155        1.45256889097407       -1.43189178766054
C            4.10122577330874        2.23030861533909       -2.64970942044906
O            4.07936513865226        0.11144526556325       -1.38740973926485
N           -1.21729290772142        0.54173334188841       -1.20520742830047
C           -0.30718140832549        0.67119685108886       -2.34214695231043
C           -2.26645897822742        1.46038486294506       -1.20488704868150
O           -2.38418061272565        2.31006009554575       -2.09756112451072
C           -3.18974570208312        1.36470859814147       -0.11074732921577
O           -4.19405629097626        2.27212007765571       -0.11604033823881
H           -6.53407386373849        1.64464683496904        3.18450734356714
H           -6.23851871298070       -0.11764052543929        3.22779253524073
H           -5.21203887962046        0.97751608208451        4.18592481348199
H           -1.20851409679611       -2.77954694778339       -1.46737357200872
H            0.49053537472072       -3.26046668171862       -1.33413511899515
H            0.03837036810483       -1.90271311704776       -2.36651310686802
H           -1.06601318713485       -2.81955287393510        1.11549915450931
H            0.69436569679720       -3.03756324289340        1.07625898950778
H           -0.01376915922527       -1.65615167650343        1.93788126518282
H            1.32464864772207        0.15639656611972        0.17169543682715
H            5.05181120587866       -1.87552387647385        0.22529008033394
H            4.35890166990536       -1.17713844042144        1.70589439803617
H            5.56152069671754       -0.26354426341397        0.77359271783940
H            3.72421187061959        3.24615552876933       -2.54985817630041
H            3.66397046422572        1.77045422084152       -3.53710076159090
H            5.18335979048570        2.26375081592923       -2.78899612196974
H           -0.20136413897713        1.73220700532171       -2.57147196204113
H            0.66826922843233        0.25447524668574       -2.10956110653231
H           -0.73300988396776        0.16750746402091       -3.21089480107539
H           -4.08643908451092        2.82989928696899       -0.90801807309614
