42
 energy: -83.003032144279 gnorm: 0.000455822386 xtb: 6.5.1 (579679a)
C           -4.57184577790508        3.77425004368388       -0.55129016779770
O           -3.66908835918631        2.69920780064311       -0.29526712612367
C           -4.09066133674206        1.47204328937882       -0.65959044958708
O           -5.17075118213388        1.29271713038262       -1.18054688243662
C           -3.09486867216401        0.42664047516494       -0.34546512756426
N           -1.95778814316166        0.86087343916221        0.25069111479321
C           -1.01456533797315        0.03973744500470        0.57614127571686
C            0.22949339130326        0.51438941340207        1.29925885409773
C            0.28416216114572       -0.08691334983187        2.71097421400033
C            0.21183018402978        2.04136308196996        1.36927116669474
N            1.44758669666787        0.13536408372563        0.55726968104723
C            1.94153888769359       -1.10571989341969        0.41940445306622
O            1.36467466174122       -2.14736319263683        0.72722728177244
C            3.29066962043585       -1.12689912064161       -0.18486367085965
N            4.00800496780683       -2.16270665762902       -0.49390086726584
N            5.18012091202118       -1.69270867833272       -0.99951958495600
C            5.11031496344497       -0.39721673898772       -0.96699147683849
C            6.13402187445422        0.57765257704000       -1.39992691229371
O            3.93878267115296        0.02519752311122       -0.46433086283279
N           -1.14969075511285       -1.30594083951307        0.33349876474779
C           -2.21650931865640       -1.82136409442102       -0.25458304247218
O           -2.29580926473152       -3.11414893765116       -0.49561121086008
C           -1.24127274788341       -4.00427314314202       -0.12779767585211
C           -3.34250725023735       -0.94962131195637       -0.65512679305474
O           -4.34671866468752       -1.42372919234161       -1.19393515771609
H           -4.80973333665850        3.82643858588759       -1.61749694517033
H           -5.49624247776767        3.63750442404108        0.01691955635913
H           -4.06986462177355        4.68660690811979       -0.23472260948148
H            1.18875694043472        0.24909567867040        3.21440114955373
H           -0.58401163305497        0.24492799575369        3.27814899961762
H            0.28554523593190       -1.17422249509173        2.67151798340438
H           -0.67622359152012        2.37076616148763        1.90653082855405
H            1.09691462491162        2.40119725708537        1.88910925996867
H            0.18685646464452        2.46314345483043        0.36562934808136
H            2.05146751539586        0.89814046271643        0.29185863806280
H            6.39648537318334        1.23195004120355       -0.56884853914549
H            5.73979409147614        1.19888796782257       -2.20424134189474
H            7.02014628084472        0.05017492581217       -1.74560599453590
H           -0.34611564762863       -1.89268360910330        0.58267943082490
H           -1.55985159270604       -4.99467192202937       -0.44859090302670
H           -0.31180980193411       -3.72730962226130       -0.63044485921657
H           -1.09123600510451       -3.99077936710722        0.95390520061744
