33
 energy: -57.867379589288 gnorm: 0.000681877353 xtb: 6.5.1 (579679a)
C            5.23977724537049        0.35542151325522       -0.34852029197862
O            3.96626849821154       -0.30125105781290       -0.35630753545826
C            2.90322782479589        0.45987794019807       -0.12807828690549
O            2.96247430252705        1.64808653932181        0.08836919138135
C            1.61589207167401       -0.29940182851883       -0.16803854790870
C            1.45457448153357       -1.62845764677890       -0.43853933486035
O            2.44562550954064       -2.47909110353073       -0.69932640813266
C            0.11607246117119       -2.20944878321150       -0.45503244710059
O           -0.06136762997751       -3.39736212168716       -0.68257431747092
N           -0.93262589218457       -1.32903768616264       -0.21250178666087
C           -2.26147297837175       -1.93674837465063       -0.25558826194048
C           -0.68177457963954       -0.00999661549719        0.08327769879431
C           -1.76523681297548        1.02936387823714        0.34536541450579
C           -1.13888896486626        2.25651414474687        1.01392558399118
C           -2.48690691766028        1.43946535971896       -0.93908340997933
N           -2.79951630398480        0.52016687640983        1.32556435547646
N            0.51518473706716        0.47008100929717        0.09552350359077
H            5.98664680489552       -0.41449721874207       -0.53197756610162
H            5.41069178165027        0.83001915808914        0.62081058726998
H            5.27209841123076        1.11420970037617       -1.13398308944016
H            2.06961357395930       -3.36776514551569       -0.85057435705053
H           -2.36481631324998        0.05556994876804        2.11591720140353
H           -2.96075076955692       -1.28218489871804       -0.76394791905318
H           -2.60002246840508       -2.14938983030429        0.75639907692777
H           -2.17961010277099       -2.87316694181943       -0.80789663005298
H           -0.64184188531251        1.96992735561940        1.93901238243666
H           -0.40319047455195        2.69938300093872        0.34406403582097
H           -1.91093206619874        2.99249621366094        1.22979480718779
H           -3.23294358078247        2.19942657709520       -0.71378808580822
H           -1.75888667624105        1.85479157763350       -1.63537254264016
H           -2.98032114841064        0.59440669615276       -1.41275602269952
H           -3.46002900722985       -0.11641171056977        0.89522188491027
H           -3.33701013126213        1.30500247399457        1.68064211754875
