46
 energy: -86.317860802570 gnorm: 0.000733610650 xtb: 6.5.1 (579679a)
C           -5.83412775430864       -3.28444272850975       -0.14897114087633
O           -4.91516407017186       -2.23327860872519       -0.46787243431075
C           -3.90878937643630       -2.04518294474345        0.37938811625991
O           -3.74408778432113       -2.70589913262455        1.37888185959875
C           -2.99975893297482       -0.93050884882525       -0.02638479896353
N           -1.95251021643882       -0.73208397438141        0.83125534791455
C           -1.07963109895079        0.19988744934190        0.64116042286232
C            0.00769897654779        0.30002194520419        1.70065230329442
C           -0.26485320478298        1.48608261598318        2.63294799560296
C            0.06333786283278       -1.00403690853644        2.50486863614417
N            1.30965147342206        0.45180193582334        1.00254240502258
C            2.43493311726807        0.68382611589826        1.64894639653099
O            2.63754503020321        0.84539616118863        2.81945046244655
C            3.70089783322116        0.82409417398773        0.65529582222246
C            4.24754174095433        2.23534778632659        0.86220597176231
N            4.57696794376772       -0.22579976497716        0.97530387756306
N            4.69542893459658       -1.00705563600130       -0.01692249620059
C            3.94306367136516       -0.50239079031915       -1.03741954637643
C            3.81475802488422       -1.08201480004736       -2.36948734493107
O            3.34034609674994        0.57984205842505       -0.67961120872965
N           -1.15923894711668        1.06429687753944       -0.42207689292555
C           -0.23744843750217        2.16439628672654       -0.70952772980208
C           -2.15300459754582        0.92113457817703       -1.37779879335153
O           -2.22108945304450        1.65087515733667       -2.35822103089978
C           -3.12149277184384       -0.14090794107681       -1.13598586359998
O           -4.08137572136489       -0.25619560399077       -2.05491050665891
H           -6.31318255217708       -3.08372911541098        0.81223483408301
H           -5.30641822012503       -4.23976485431450       -0.09921609661958
H           -6.57476778435116       -3.30090500246918       -0.94606731709544
H           -0.16605491190803        2.43389304991260        2.11052789596138
H            0.42928900631792        1.47431145466640        3.47116407294824
H           -1.28102199085964        1.39993719833721        3.01630246923889
H           -0.88444102029734       -1.15631538386165        3.01878261051436
H            0.24343256597194       -1.84449156476763        1.83717366750898
H            0.86464187883217       -0.94802021170729        3.23916826012431
H            1.33474511241030        0.28354744164402        0.01213800199570
H            5.13842761838216        2.36162300925419        0.25094878251878
H            3.49105198859359        2.95637216938042        0.56204728936089
H            4.48796937491712        2.36244494865328        1.91614549505112
H            3.73904734551288       -2.16795629528208       -2.30365637768294
H            4.72795110204776       -0.85547583344982       -2.93021867252400
H            2.96404354313720       -0.65500909297546       -2.89578681811486
H           -0.82942177282364        3.01889389836779       -1.03800254890805
H            0.42898984487880        1.86306441848675       -1.51658582303096
H            0.33853557125350        2.42889263515674        0.16733823019523
H           -3.93241503872094        0.41148067117829       -2.75076378512294
