33
 energy: -57.850510062933 gnorm: 0.000534794002 xtb: 6.5.1 (579679a)
C           -2.83889533212615        3.11888631803906       -1.15623315497094
O           -1.82019466888959        2.17493204750249       -0.77600879668880
C           -2.12685704384693        0.94506552574105       -0.58867677613791
O           -3.35862064137104        0.59569311863616       -0.75807413485335
C           -1.07541314289398        0.03580613252518       -0.19445587577383
N            0.16347248393938        0.61365962861219       -0.08035817800717
C            1.16490549770247       -0.11376442432539        0.29097794254544
C            2.54988262541312        0.49145470925175        0.43033805130963
C            2.44556269814205        2.01929393301342        0.43022656550699
C            3.41961094605497        0.00372473306626       -0.73615693670981
N            3.16052837320319        0.06016627448774        1.67970520872874
N            1.01668601537706       -1.44071525993722        0.56938807360610
C           -0.15822624757335       -2.14792960882706        0.48298420778914
O           -0.20014541765040       -3.33385152811705        0.74519020680785
C           -1.29503801241086       -1.31055064573774        0.05710133262020
O           -2.52241107610361       -1.79756501513203       -0.08228851768674
C           -2.84970275877825       -3.18086162682036        0.16365727621827
H           -3.24945191642889        2.83568177138314       -2.12605219075010
H           -2.34538810267919        4.08668743725111       -1.20781207073875
H           -3.62940705470052        3.12055413886792       -0.40526605701639
H            1.78425219054462        2.34838456065820        1.23083893160531
H            3.43489863725048        2.44717020567100        0.58705093015067
H            2.04529940016541        2.36972768323956       -0.52029773044861
H            3.46660809822203       -1.08391943945053       -0.74018002729133
H            4.42826297876899        0.39942349250673       -0.62388621629200
H            3.00332877429811        0.34196488768409       -1.68400828096670
H            3.44063121842743       -0.90756234231358        1.62606018779783
H            2.50588205358933        0.16356100648293        2.44158628759301
H            1.81674511205383       -1.97258535418284        0.88500401840529
H           -3.53774802078504       -0.35648277186271       -0.59513842292655
H           -2.63716012309691       -3.43795708037479        1.20174123347489
H           -2.28553689331431       -3.82635905722032       -0.51013694555880
H           -3.91636065050406       -3.26173445031577       -0.03682114133930
