42
 energy: -83.603413335167 gnorm: 0.000691511725 xtb: 6.5.1 (579679a)
C            3.88599870891070        1.70251751061689        3.05678820079296
O            3.29974977964867        1.03572831757092        1.94701120130768
C            4.05115973404867        0.98482394344542        0.82397513587085
O            5.15749517784758        1.49176812463771        0.78263594308986
C            3.38498817586631        0.26214863235724       -0.27673316461111
N            2.11416461731621       -0.18715272911295       -0.04683934345872
C            1.50933675525648       -0.85101605125750       -1.01321099373661
C            0.08179098750325       -1.31050670973443       -0.73310457620679
C           -0.04553748855527       -1.71553263315398        0.74637140199574
C           -0.28826713718152       -2.48841446964517       -1.64071668076293
N           -0.80573576921179       -0.16144593705261       -1.05271893753756
C           -2.18347211074438       -0.34972888713830       -0.63542663628717
O           -3.05133830709905       -0.85420738801507       -1.62368804829314
C           -3.49053287744905        0.09127488624434       -2.58904923102060
C           -2.63647332050549        0.38278389307178        0.43268003957330
N           -1.85012177899673        0.97832929653343        1.36215015603522
N           -2.71090399532905        1.49869538572047        2.30995032090395
C           -3.91198989783656        1.21410127997859        1.95424056609732
C           -5.17300519276639        1.56107987018854        2.66404762505276
O           -3.97625821367043        0.50565673989481        0.77572421810108
N            2.00995925472023       -1.13311977766691       -2.22113952460798
C            3.25733286316731       -0.71715608555098       -2.52497010946270
O            3.82486930241259       -0.92592320818641       -3.62264701191683
C            3.97928125025007        0.02381549475770       -1.49134068504000
O            5.23063307240692        0.42141568520658       -1.83274407078494
H            4.05903406777458        2.75769485650258        2.82574865326072
H            4.84076497381254        1.23971057979524        3.32233788918653
H            3.18958498047353        1.61518020334843        3.88944356691184
H            0.12553912363505       -0.84896590422352        1.38742198899245
H            0.68930377873037       -2.48410141344270        0.98753615942596
H           -1.04384061835987       -2.10741078471988        0.94482756077514
H           -0.20357704367885       -2.19161949707225       -2.68695817625932
H           -1.31246628641499       -2.80865428300004       -1.44894402065927
H            0.38315970775194       -3.32881288227010       -1.46147736258916
H           -0.43654455110036        0.64839728532726       -0.54420159711360
H           -2.64302946601017        0.53127239680777       -3.13471209871519
H           -4.13387222674674       -0.43489991766520       -3.29865662691593
H           -4.06618762775528        0.90232476199452       -2.12170245991869
H           -5.73012905876269        0.66048471344476        2.92779071921690
H           -5.81511824632950        2.18010504509071        2.03494988566174
H           -4.93417734135387        2.10966414570743        3.57332092685677
H            5.36843124433916        0.09969751065465       -2.74796880319748
