43
 energy: -83.123991004344 gnorm: 0.000851568914 xtb: 6.5.1 (579679a)
C            6.55578939973608       -0.01015504738372        0.70943642737660
O            5.28955969436446        0.48185012831648        0.23547692855902
C            4.20930564609564       -0.09848737998213        0.70822983743387
O            4.18712950974077       -1.00045059504849        1.50283232678475
C            2.93011669957276        0.49208996492088        0.13659179662789
C            2.84948906809808        1.27381797497275       -1.03574709771999
O            3.86064828322436        1.60043468384282       -1.75632622350148
C            1.52471023601454        1.77554935011975       -1.50335215315563
O            1.46025630978535        2.46011619665395       -2.50325664236204
N            0.49026833633197        1.42064618884646       -0.71641274850757
C            0.57142433251795        0.54559206772953        0.40903474726389
C           -0.20462260265781        1.14298764648324        1.58842478285349
C           -0.10077640481993       -0.92671974437724        0.01745680494174
C            0.35335683948425       -1.96582720599510        1.03789733439709
C            0.36943766633338       -1.29873591098925       -1.38341167663462
N           -1.51764858800318       -0.81293622149534        0.10744660087109
C           -2.33779525824365       -0.13589383906012       -0.76122641032415
O           -1.94905106425480        0.52373555561579       -1.70302152664489
C           -3.74652583723854       -0.30784742709008       -0.37994167567971
N           -4.18130630731634       -0.97212068971387        0.65278929355158
N           -5.53111227199962       -0.87851760838962        0.63789851966562
C           -5.84519335624252       -0.15983625506287       -0.40403486597174
C           -7.19580350651345        0.22623050278001       -0.86284267977116
O           -4.75840374655650        0.22756224925397       -1.08237969381042
N            1.84746776830327        0.20669369775148        0.81177876821126
H            7.31901881163969        0.57654083021240        0.20360222631466
H            6.61956932818693        0.12226689980997        1.79113650166622
H            6.65310094174974       -1.06863265125574        0.46164454863754
H            3.58225582501725        2.14136727896398       -2.53224642798316
H           -0.43755547283665        1.69785947035658       -1.02862256259995
H           -1.24431038325519        1.29064988015814        1.30917045716888
H           -0.14402382643572        0.47962038573363        2.44710646770846
H            0.24356271825506        2.10204402797612        1.84139633620331
H            0.10227746143577       -1.66154987928831        2.05196603771046
H            1.43070707415711       -2.11084409639806        0.97304761849933
H           -0.14961114626374       -2.90796610047465        0.82209888250380
H            1.45711108066970       -1.32780786676799       -1.41355724578067
H            0.00922549060225       -0.60061332372398       -2.13414105740069
H           -0.01383474054390       -2.29240729430088       -1.61401634006268
H           -1.96648496711734       -1.21926224733684        0.91887452531652
H           -7.42571758752083       -0.28075222247703       -1.80114295447476
H           -7.23291560539618        1.30035350063361       -1.04278100013515
H           -7.93309884810308       -0.05064587451479       -0.11272878774091
