47
 energy: -79.544721066011 gnorm: 0.000283649378 xtb: 6.5.1 (579679a)
C           -3.20170909628915       -4.15798776247423        0.98861975749285
N           -2.22083247299220       -3.07292284072946        0.97136038750598
C           -0.95244620479688       -3.34356527475755        1.44528268602597
O           -0.61495404679416       -4.44211229262073        1.87369598283641
C           -0.03312681565148       -2.21814317986040        1.40695109880904
O            1.20382030324279       -2.48995768676313        1.86808086680625
C           -0.42619994075557       -1.00221532214699        0.92708511748448
C            0.41036038383901        0.23633421088415        0.82484460941152
O            0.00406993916704        1.23232754976302        0.22497168898530
N            1.60776095398638        0.19469295656296        1.42808541156636
C            2.51893690168546        1.32734041660590        1.39492951242580
C            3.75424330106990        1.03796615678665        0.57049030314365
C            4.90353911118389        1.79806170382924        0.78217965158444
C            6.04753466649070        1.57503393346751        0.02965750895744
C            6.01685562522781        0.58061876321235       -0.93181105703760
F            7.12023567055320        0.35651969481042       -1.66323737303604
C            4.89440869895930       -0.19152053001390       -1.16785210972104
C            3.75808772184441        0.04715046686616       -0.40730008267042
N           -1.70783026920299       -0.85136682278531        0.45937047447672
C           -2.54766304009455       -1.83635585227482        0.48900495928663
C           -3.93113446626619       -1.61247969664375       -0.02675223178816
C           -2.73523851148212        2.73793914687173       -0.94982150100691
C           -2.01795376044994        3.30896938661511        0.20606726176577
C           -2.18016023353004        1.57855167333310       -1.66331290573713
N           -3.87205638604502        3.23742404490922       -1.31114242931511
H           -3.52859963292742       -4.37207755288292       -0.02782106510265
H           -2.72489506246243       -5.03845194726019        1.41758012782653
H           -4.05728947325909       -3.86758733431990        1.59622969342021
H            1.22653492320431       -3.42465051278306        2.15492546339527
H            1.90156547783465       -0.62150389131483        1.94086545184948
H            1.97842889245525        2.17839886348465        0.96668396934787
H            2.80180638017186        1.58200297475691        2.42115048024875
H            4.90555059272311        2.57127814833205        1.54154131617175
H            6.94556487187846        2.15855475251767        0.18610731549034
H            4.90794072208295       -0.96070174971247       -1.92905746933642
H            2.86947929068214       -0.54947284110708       -0.57473279785150
H           -4.14182298305986       -2.27446835081103       -0.86672193278064
H           -4.67111589816561       -1.80333741399632        0.75031904916825
H           -4.02198314449450       -0.58088794612629       -0.35742024722559
H           -2.51157550474462        4.19349462625648        0.60067870821119
H           -0.99029287423897        3.54160943145119       -0.07537901404019
H           -1.95235721235828        2.54385776946283        0.98264362828491
H           -1.15787066161751        1.78674746389080       -1.98067039445271
H           -2.79210825526473        1.28230002872506       -2.51148443000298
H           -2.10203044414351        0.74645021594717       -0.94991325829158
H           -4.39204669082577        2.86404108861700       -2.08747093726496
H           -4.29143234642437        4.01410133361137       -0.82778824537880
