33
 energy: -57.818236056345 gnorm: 0.000559293439 xtb: 6.5.1 (579679a)
C            3.53402765891264        2.37883387162214       -1.07697801665749
O            2.33436178895699        1.60614722140387       -0.88990683385825
C            2.48066764973079        0.34730609301726       -0.57024794637930
O            3.53092192335059       -0.22870670903460       -0.42461128132878
C            1.15411355957593       -0.36138830464129       -0.36687967035523
C            1.18467583456044       -1.85311888267136       -0.17730116703067
O            2.08535574021354       -2.52722792967783       -0.98196723669388
C           -0.18877548060179       -2.48273190806872       -0.31910235941005
C            1.53427680501706       -2.04234626919353        1.33813559073931
O           -0.44106263812738       -3.62415696197800       -0.54167120168753
N           -1.23176040860906       -1.55675972456538       -0.03652556556893
C           -1.10393661621155       -0.25058719041977       -0.02352094746820
C           -2.32034504342844        0.58452094749702        0.19815252472669
C           -2.15694807901453        1.24475222563079        1.57985553882794
C           -2.40561452560356        1.66627962463037       -0.89403478835149
N           -3.47338516166962       -0.29705713335457        0.18803343200972
N            0.09504700325384        0.36033206107993       -0.21319474107558
H            4.14464303415030        2.32680923310236       -0.17408576693645
H            3.21103096987118        3.39879259070289       -1.27051978075466
H            4.09483784384263        1.98022381547837       -1.92411725000880
H            2.98516897218541       -2.17248586239342       -0.87820321912571
H            0.80511797179423       -1.54224902531865        1.96959973154788
H            1.53781144121477       -3.11125654713738        1.54360957005561
H            2.52527394585982       -1.63126167648971        1.51539623846175
H           -2.19285715008760       -1.90113340202455        0.05086184317652
H           -1.23295714145637        1.81998681060065        1.61163005845919
H           -3.00094280555790        1.91001504142478        1.75063924825192
H           -2.13382178372686        0.48316245565282        2.35646948751431
H           -2.51243538118492        1.20291134660068       -1.87288861093664
H           -3.27341717338105        2.29180407519448       -0.69755392241608
H           -1.50532103574693        2.27839047069475       -0.88153167901440
H           -3.89155928677053       -0.31833522184622       -0.73150009282475
H           -4.17219243130657        0.02053386448085        0.84395581410692
