16
 energy: -33.441255978730 gnorm: 0.000754045588 xtb: 6.5.1 (579679a)
C            2.77910730783114       -0.28101947463939       -0.57189275070731
C            1.34301764167105       -0.16529179393926       -0.27899126376971
N            0.50320644388685       -1.11711288594624        0.03331705846961
N           -0.67194924408963       -0.50488439143398        0.20768934260561
C           -1.83815696686525       -1.27441578511630        0.58380179535215
C           -0.53939662842813        0.78979594375269        0.00454104013760
C           -1.59804978623067        1.83924300141480        0.09232515986814
O           -2.71775340317723        1.54326253582085        0.38923653382558
Cl          -1.06069755960149        3.40443309198338       -0.25938732351183
O            0.72602557767777        1.02391763130701       -0.30565797403533
H            3.34727205705409        0.30094322208212        0.15567561100032
H            3.08379347630571       -1.32408411361863       -0.53165115718185
H            2.98655965975699        0.13287262288788       -1.55964990395429
H           -1.97575268505911       -1.18678771715293        1.66161570451659
H           -1.65892894113338       -2.31038461271171        0.30839122243040
H           -2.70829794959870       -0.87048627469031        0.07063890495433
