42
 energy: -82.884640692472 gnorm: 0.000749433523 xtb: 6.5.1 (579679a)
C           -5.89721618279218       -1.83935983567269       -0.21638340687234
O           -4.69823687070395       -1.05857902982113       -0.22722053553427
C           -4.72651008133293        0.05735807284865       -0.95755761105452
O           -5.68978244678324        0.40951421751201       -1.59489082586924
C           -3.43189308518401        0.80245458982164       -0.87335210472226
N           -2.46196442165340        0.21705663931486       -0.17316830822472
C           -1.28099778430555        0.78414827647630       -0.03521855646399
C           -0.25802884943564        0.08276207516003        0.80943221870678
C           -0.32161591699062       -1.44011714829690        0.56668023801694
C           -0.63237268362509        0.40080725266210        2.27635787813684
N            1.05562228164897        0.57742035679580        0.49803749045839
C            2.26300038984047        0.07299229673376        1.17251302892284
C            3.12736082566846        1.35809112020001        1.49074432832884
O            2.09807138439602       -0.68403766199226        2.19328184772444
C            3.03686836468331       -0.61728608329640        0.01852496010969
N            2.52008559768697       -1.31423465899415       -0.93771552209037
N            3.57553052381531       -1.78111046033354       -1.67506189339075
C            4.65438381328869       -1.32993603287215       -1.11999163878974
C            6.05669075479371       -1.54420764820148       -1.53901639966153
O            4.37631670833764       -0.58025684505639       -0.03487811455200
N           -1.00792920705166        1.99254542067479       -0.56628801593265
C           -1.90748702290984        2.74201414140279       -1.32091302503904
O           -1.58910683945393        3.82822789085156       -1.74531606233987
C           -3.26290162025729        2.08882752721434       -1.52809921732359
O           -4.11412080220911        2.65545414743018       -2.19419625165046
H           -6.14580200269227       -2.16030854059293       -1.23096463897969
H           -6.72319619487642       -1.25026523013338        0.18954738335139
H           -5.70039206563592       -2.70148587326995        0.41699714650232
H            0.31590103443335       -1.95209459360765        1.28400236460335
H           -1.34980343912781       -1.77518842354345        0.68711658148149
H            0.02491021856936       -1.66043925914189       -0.44176406149289
H            0.02164861648519       -0.14388539230055        2.95252651792965
H           -0.52716569365248        1.46909305609640        2.45294687820907
H           -1.66428440094998        0.10288999118199        2.45311790518712
H            1.21341810907251        0.86596330452522       -0.45545259258639
H            4.06724420687656        1.02213633510358        1.91911970162207
H            3.30107594866430        1.92964703876305        0.58557520544685
H            2.56977274957321        1.94504954366385        2.21400476701160
H            6.52055106089102       -0.58719149810466       -1.77916747904711
H            6.08241507652695       -2.19142246091105       -2.41278292986145
H            6.62423237539391       -1.99925195891830       -0.72692731095492
H           -0.11428942901321        2.42816934061574       -0.39420093930758
