42
 energy: -83.657668929369 gnorm: 0.000309984364 xtb: 6.5.1 (579679a)
C            5.31236171257966        1.62041053204713        2.62539040656753
O            4.35228046859683        1.68684636762369        1.58695609162228
C            3.48488557183834        0.62895768897027        1.51578618294093
O            3.56696357808645       -0.27904478669656        2.34358512792765
C            2.53580225886670        0.69003576759749        0.42763380609821
N            1.70239857848727       -0.42203657032389        0.37068070651303
C            0.82491041042184       -0.51458463165908       -0.56883109429085
C           -0.00137343946949       -1.79392329832315       -0.69984973833869
C            0.31059901657401       -2.70009366317612        0.49978003001428
C            0.41839114868579       -2.51819231268858       -1.99314037405894
N           -1.46159759564403       -1.62514288599925       -0.70844985464860
C           -2.11037601477828       -0.55405920939440       -1.55154111896125
C           -3.52543214086387       -1.11083661686615       -1.87754826717367
O           -1.44546161957808       -0.21046041372867       -2.65216557338261
C           -2.32125124055063        0.63814802447368       -0.58915898234880
N           -1.82447842295127        1.82901632446271       -0.64523403823697
N           -2.31150740617940        2.52179671577338        0.44457643722777
C           -3.07144459771356        1.70252119688020        1.08584775165694
C           -3.84718430430103        1.96170601482063        2.32244444895603
O           -3.12536542497176        0.49160731603388        0.49563982205111
N            0.66447772303912        0.43223642082367       -1.53684279467114
C            1.39060534729233        1.57410755913178       -1.58707372199287
O            1.19502728076251        2.42362538675885       -2.46990536846895
C            2.45526736094179        1.74313690833803       -0.52074509896223
O            3.16934554008070        2.77279706028859       -0.54037740176697
H            4.82911733743502        1.58622834918590        3.60788715082009
H            5.92912567481954        2.51617726142942        2.55412482661739
H            5.94493339221672        0.73228315703458        2.51864810406490
H            0.06933877562721       -2.18962499918201        1.43255990432581
H            1.37015585439700       -2.95582312975943        0.51339625718476
H           -0.27502073238670       -3.61630690471005        0.43753531968378
H            1.49099045957772       -2.71444952314960       -1.98274396964623
H           -0.11337396507187       -3.46650853321938       -2.06599836907070
H            0.17657481830995       -1.91887672733713       -2.86993638559153
H           -1.80505425653920       -1.53361958410952        0.24249286239080
H           -3.41119308640580       -1.99795660529454       -2.49742140119564
H           -4.05856742296962       -1.37515792163580       -0.96746586038580
H           -4.09235692622609       -0.36041159593820       -2.42646234190767
H           -4.90950290564938        1.80886797914848        2.13531961583316
H           -3.68346515323346        2.98540160014273        2.65005381328042
H           -3.54374318320443        1.27451632898418        3.11148754088436
H           -0.25580346990472        0.23668495324808       -2.17093645156820
