46
 energy: -86.317849370066 gnorm: 0.000229110598 xtb: 6.5.1 (579679a)
C           -6.00933086958307        1.39925188304027        2.46682625266002
O           -5.05117573103515        1.31878388802955        1.40568378412712
C           -4.03214259302989        0.48530776842202        1.58612415693333
O           -3.89026546153896       -0.19202667582707        2.57812265759585
C           -3.07276249201060        0.47107018946694        0.44065253580087
N           -2.00243837277844       -0.35953805413623        0.62997109338965
C           -1.07240734642506       -0.49111684323602       -0.25542936148082
C            0.03382441156506       -1.47227383700054        0.10330980923564
C           -0.12964068929216       -2.77450766763452       -0.68965570262402
C           -0.00449104536684       -1.76303460778575        1.60823540977176
N            1.33401416290316       -0.82106206324482       -0.19883934141507
C            2.48195767339289       -1.46197663171729       -0.09709936224893
O            2.70765839799106       -2.59745029286897        0.21649319941022
C            3.74273284266097       -0.55556638497375       -0.53100582374816
C            4.40451949353331       -1.28518355498332       -1.69983021218311
N            4.54439155349518       -0.39384517344574        0.61135129375386
N            4.61317812231266        0.83369793062660        0.92089790880066
C            3.89636278486182        1.53793374886228       -0.00340878152420
C            3.73694680072928        2.98713797770362       -0.03186980177751
O            3.36047173083757        0.75217549821629       -0.87318157349569
N           -1.10974356375444        0.17799986211240       -1.45384352979574
C           -0.10661047080824        0.09655689983087       -2.51645187387597
C           -2.13323889744967        1.06975803584459       -1.73454201861068
O           -2.17239010590838        1.70698781060290       -2.77911274819604
C           -3.16537084896668        1.19835249370395       -0.71333320771504
O           -4.14870775193725        2.05189988171805       -1.00209819755227
H           -6.73802833726176        2.15131918718691        2.17065031121121
H           -6.49625265696480        0.43101678695598        2.60608021188290
H           -5.51484637825573        1.69294782106449        3.39581786757848
H           -1.14500031450795       -3.14273093229959       -0.54803556060192
H            0.57085366746039       -3.52528918288160       -0.32893254968228
H            0.04219193971400       -2.61959941807581       -1.75137933446602
H           -0.95433963773422       -2.22932634767543        1.86547039036258
H            0.80806303166393       -2.43719188462044        1.87206962889674
H            0.09836304676653       -0.83578038381789        2.16869893750913
H            1.33136667208537        0.16049545873453       -0.41283686117972
H            3.70145427367847       -1.34214092309175       -2.52721215834582
H            4.67830729658028       -2.28625331310483       -1.37162579586040
H            5.28801709877157       -0.72918393581327       -2.00536565403752
H            4.72096617406495        3.44615832702718       -0.16269183926363
H            3.35470810929756        3.33502239417750        0.93023942404944
H            3.07553800997741        3.28755251987912       -0.84066695276194
H           -0.63153127604577        0.08056191746485       -3.47178793063795
H            0.52457734543298        0.98316530913765       -2.47296239606472
H            0.49971781492494       -0.79354124022361       -2.41291978331350
H           -3.96946561403383        2.45346575863787       -1.87333452053102
