42
 energy: -82.931239373658 gnorm: 0.000200707524 xtb: 6.5.1 (579679a)
C            3.66798704106135        3.80824999791805        0.30942127547818
O            3.67144576363905        2.42620474170591       -0.05858364407137
C            2.52822155662494        1.76538140902483        0.10591080557766
O            1.52026772314237        2.27777960698497        0.53789213164934
C            2.61286313490243        0.32641534898073       -0.28866527383915
N            1.48070895371792       -0.37493995940594       -0.08425676795285
C            1.46780799059050       -1.67875693971453       -0.36120928374352
C            0.18349431558572       -2.42904042902893       -0.06088321965055
C            0.38042573861676       -3.22169831376780        1.24104094405541
C           -0.16898459350030       -3.36339436493715       -1.22414160271977
N           -0.87044341407350       -1.43132522811895        0.11579631586869
C           -2.13639340416462       -1.72523876717595        0.43227886208480
O           -2.60567593711769       -2.83831558585132        0.60760404724774
C           -2.98976129901130       -0.50501856083338        0.55054568646994
N           -4.28421147840506       -0.50777909667712        0.92988038819806
N           -4.71402210881755        0.69599947996156        0.90884102056376
C           -3.65860961739706        1.57337627342899        0.48311762280589
C           -3.32019243480102        2.58512352562052        1.57926466645533
C           -4.03528873851632        2.24551193929162       -0.83992230382755
O           -2.55113618114451        0.69249686222937        0.27601769383594
N            2.47755081535601       -2.39666230485393       -0.80499665514068
C            3.65876144285176       -1.77034044271944       -1.07590757354397
O            4.65245319872928       -2.32970974866349       -1.54288383226688
C            3.72720785864927       -0.32300424089012       -0.78849636484960
O            4.88724932764477        0.26208829478456       -1.06148696515113
H            4.66211030433578        4.19212234851983        0.08928898880548
H            3.44807099258765        3.91165568579046        1.37467016335118
H            2.91464188758270        4.34909844404029       -0.26797663636337
H            0.57931444736116       -2.53786775300671        2.06470286711917
H            1.23029170249344       -3.89180219706984        1.11992042352667
H           -0.50846616201096       -3.80735310913213        1.46748818013194
H           -1.04157240832746       -3.96530386794339       -0.97764841136275
H           -0.37727434969802       -2.78048910010967       -2.11975925979857
H            0.67946257706310       -4.01892341756400       -1.41614040224055
H           -0.57828098038099       -0.46186813962313        0.03632214512125
H           -3.05373503197401        2.05558884654321        2.49148280292630
H           -2.48291135258158        3.19750281684545        1.25360113498690
H           -4.18768256264219        3.21413652932057        1.76057611372805
H           -4.24310643357018        1.48137944062643       -1.58574654896987
H           -3.20882122034236        2.86722873445143       -1.17458333204488
H           -4.91987919883023        2.85827116019886       -0.68692247564244
H            5.50611113476706       -0.42677891917367       -1.38391172680480
