46
 energy: -86.352104407283 gnorm: 0.000247676344 xtb: 6.5.1 (579679a)
C           -5.61342955981665        2.43049990996840        1.60395158107894
O           -4.46067005833853        2.17264574480551        0.78241098789901
C           -3.66121697805408        1.20564073111550        1.07290469625350
O           -3.95758153462711        0.52505885805160        2.12669614979462
C           -3.25524576694192       -0.61354243719107        2.64434067107951
C           -2.53898343139949        0.98667182705485        0.18686628833840
N           -1.62104059820850        0.02589426983026        0.53014452809627
C           -0.59668382672850       -0.23484095479715       -0.22239573117354
C            0.33643008125583       -1.32964300879417        0.27267974782072
C            0.02943742243964       -2.64563510428482       -0.45125918953976
C            0.16374778041916       -1.53185035767469        1.78433045283764
N            1.72525908266242       -0.95249555403140        0.02881947542507
C            2.18108789470401        0.25903246319776        0.43079926482397
O            1.45997750123158        1.15794967823646        0.83129129693131
C            3.64564193550895        0.39898600882530        0.28711217741639
N            4.38454861834309        1.42604893068846        0.57032482051084
N            5.66748817509084        1.08025405084749        0.27543724862954
C            5.63485247322361       -0.13776659482784       -0.17042979413839
C            6.76832374439526       -0.97127022648838       -0.62480157554290
O            4.38427071400544       -0.62713532157340       -0.18837628497579
N           -0.39608686811908        0.39381965932468       -1.42535527256368
C            0.69424970928489        0.10241447437597       -2.36125390462400
C           -1.22204528452341        1.41249586405303       -1.84378930784535
O           -1.05254110053229        2.03096479228041       -2.88321614066911
C           -2.35898709766875        1.71280129310564       -0.97227830785454
O           -3.15941376988361        2.67146785440100       -1.39467152601079
H           -6.23738165688635        1.53755092054085        1.64484146589549
H           -6.13962884090819        3.25403948683712        1.12696803451033
H           -5.29031086782678        2.70234318027024        2.60932038472602
H           -3.86658997377409       -0.98193976062492        3.46685793703311
H           -3.14962941161114       -1.37232278194620        1.87055881813832
H           -2.27335452983594       -0.30642586795582        3.00273094372348
H            0.66309305586638       -3.43471161769041       -0.05063901619633
H            0.20283987245991       -2.56642361584610       -1.52161193227889
H           -1.01286034931891       -2.91191078340547       -0.28396640438111
H            0.94256204810590       -2.20135367506565        2.14402512054443
H           -0.80531197522492       -1.97844606448210        1.99081283287372
H            0.23975547867227       -0.57844489066544        2.30497140911158
H            2.38198091868524       -1.68832921599413       -0.17238138728779
H            6.60076636113602       -1.29463267850166       -1.65177168397137
H            6.84468690067530       -1.86226198912382       -0.00164629631097
H            7.69273596529702       -0.40152040481313       -0.56416568289378
H            1.50189360720626        0.81740473445337       -2.20408356948111
H            0.30151255259934        0.21753424558039       -3.37110740514236
H            1.05998594566641       -0.90586012370694       -2.22193445399178
H           -2.83813435870682        3.00724105164601       -2.25833046662229
