20
 energy: -38.344490473169 gnorm: 0.000863076618 xtb: 6.5.1 (579679a)
C           -2.56990302479290        1.36654789746297       -1.01418532961196
O           -2.11693641640030        0.04865918212569       -0.81950244326116
C           -1.35575987048760       -0.15379989390956        0.46952047953354
C           -1.36439194110952       -1.70548630711378        0.62110744913942
O           -1.79475973162517        0.52010762903594        1.47310082705263
C            0.11839166287271        0.25862805908644        0.07608493527814
N            0.51190106370944        1.35769414707794       -0.48611529532523
N            1.89279146830944        1.31997424644833       -0.53175059447897
C            2.24035651797051        0.20415866551117        0.01337387725842
C            3.61403255423199       -0.31861378407008        0.21286063067318
O            1.17554141706640       -0.51514970429018        0.42214876785022
H           -3.32667472198761        1.35109629717330       -1.80463742964241
H           -3.02680839697121        1.77762004105402       -0.10038364474067
H           -1.75259373248866        2.03901799169819       -1.32524226274503
H           -2.38849554275712       -2.02599776199195        0.80237100505483
H           -0.98471546479229       -2.18697561773118       -0.27789758069488
H           -0.74644900853061       -1.97995681285662        1.47325539674271
H            4.33012193630083        0.34656236991023       -0.26369579569557
H            3.70284647682957       -1.31564472637591       -0.21722369597275
H            3.84150475465251       -0.38844291824400        1.27680970358780
