47
 energy: -80.226030494206 gnorm: 0.000322412384 xtb: 6.5.1 (579679a)
C           -4.05026878524163       -0.12414897055824       -1.45729195733260
N           -2.65427776051244        0.02413206808892       -1.04203675586818
C           -1.75016118047408       -0.01531052204080       -2.04052587096452
O           -2.08046619784879       -0.14829882199060       -3.22790921974285
C           -0.26260412677819        0.07758538994052       -1.67987616205772
C            0.24931145340115       -1.36837965409225       -1.44670565237134
O            0.39690483327925        0.62141363195084       -2.81820523697498
C           -0.08252411425759        0.92518323249225       -0.43764844926136
C            1.13392370841269        1.52320900636183       -0.02833445964360
O            1.30120351179287        2.11689379621108        1.06172435812075
N            2.20223015884186        1.51777638963962       -0.96158976596015
C            3.54138695481206        1.68282553318254       -0.40992130796227
C            4.00836139765224        0.40358634666893        0.25412112188984
C            4.69703848273401       -0.55748399949544       -0.48365055236570
C            5.09713735205872       -1.75204225476129        0.10070549189150
C            4.78951131964398       -1.96296523452348        1.43160478105367
F            5.17780658265378       -3.11783864800572        2.00927096975294
C            4.10343923741310       -1.03595220243019        2.19512946622943
C            3.71283414916305        0.15180881963754        1.59333695225520
N           -1.09086602522396        0.92059031455864        0.48015735930365
C           -2.27313847487108        0.46433540144986        0.26709271613741
C           -3.23331754738469        0.35217575761933        1.44022675741913
C           -2.51989048836883        0.83904209793029        2.71395076108100
C           -3.67031175682456       -1.10641567019656        1.64521278998488
N           -4.43507402649784        1.17287359223623        1.22109818474706
H           -4.19719356830115        0.39496999399658       -2.40765657822891
H           -4.28380160039968       -1.18147833228066       -1.59860303855816
H           -4.71782560174743        0.30173400863838       -0.71264358734803
H            0.08440818101214       -1.97112393883319       -2.33867033403555
H           -0.28082284128962       -1.81543948897844       -0.60717618189198
H            1.31537245587622       -1.34488054799552       -1.22500838379790
H           -0.13132741602802        0.38085073656556       -3.59916210580752
H            2.16967576858457        0.76143696999975       -1.63423531878894
H            4.21842646077380        1.94882852982829       -1.22781578984214
H            3.52483249418525        2.50515178436899        0.31352716973707
H            4.93447313947866       -0.37247435421566       -1.52517700083536
H            5.63844462074082       -2.50154455000873       -0.46121803450427
H            3.88661992302409       -1.24191759916223        3.23540657815109
H            3.17139398522031        0.89367444947091        2.17151501395826
H           -2.17595980086222        1.86512375505706        2.58408791986739
H           -1.65788165436582        0.20807604962980        2.93051371306820
H           -3.20845228903171        0.80160777643688        3.55694605472844
H           -2.79386030113810       -1.73922564202123        1.78506926801945
H           -4.30218722502401       -1.18603835155833        2.52940868838149
H           -4.23286135377884       -1.47391533009046        0.78904883165591
H           -5.08615689255836        1.00888080375119        1.97494422807961
H           -4.18350514194512        2.15310587751882        1.24465556863282
