42
 energy: -83.615156283424 gnorm: 0.000192328134 xtb: 6.5.1 (579679a)
C           -6.00970455020459       -1.04207443875081       -0.73047929281960
O           -5.08878410346577       -0.15751921956296       -0.10709388343395
C           -3.78392746974070       -0.31108941003492       -0.45392098829301
O           -3.43707737772960       -1.15236327462149       -1.27108484263373
C           -2.85304864759188        0.55757178984555        0.37497169418243
C           -3.47741274601342        1.90997086008420        0.72802003508251
N           -1.61661413341145        0.77387062305812       -0.35793545359856
C           -0.73704427403051       -0.15942653544571       -0.32346359092507
C            0.48570180965320       -0.07223310251612       -1.22689240169597
C            0.31619872528679       -1.12533675960445       -2.33262690479956
C            0.59076597267732        1.33344858489890       -1.83317611090571
N            1.65893292741505       -0.37594588936274       -0.39991687997022
C            2.95036438611190       -0.25404744784381       -0.93801425772371
O            3.20304800390028       -0.39982024917043       -2.15157979171484
C            3.91626544661187        0.00359447725918        0.08380784134927
N            3.65770003522326        0.20154832018511        1.38017364525819
N            4.85992747075172        0.45666289448398        1.98085100894476
C            5.76779480377719        0.40795002073948        1.06218113761909
C            7.22558020359619        0.62576218620679        1.23455432224355
O            5.26850863812740        0.12786591753538       -0.16520312547696
N           -0.84109220524175       -1.27509834205834        0.44621781746245
C           -1.70351160081134       -1.33192511276541        1.59108796551812
O           -1.42640809258961       -2.20849715148508        2.46085217218381
C           -2.71773470545145       -0.34896417574118        1.63361080846003
O           -3.54393915319752       -0.17628856707948        2.59352589889662
H           -5.99225130665776       -0.91176678039372       -1.81700145140041
H           -6.99929840861614       -0.79505681175355       -0.34895610744452
H           -5.77085093253174       -2.08477001801293       -0.49685571260155
H           -2.75042138397214        2.51240116007730        1.27309762000152
H           -4.35704162187385        1.76783646024626        1.35517146734481
H           -3.76574722654522        2.44451342488140       -0.17640486477222
H           -0.64250333657977       -0.97398689991360       -2.82942185755185
H            0.33513077635588       -2.12631686712709       -1.90264003411849
H            1.11240547295890       -1.04454863007996       -3.06997490489862
H            1.42579208307106        1.38567803019398       -2.52985708141411
H            0.73596251527129        2.07204466011472       -1.04524493629889
H           -0.33071977672658        1.57069383282447       -2.36404827958630
H            1.60136067493096        0.03140214257623        0.52969968018163
H            7.56436812155798        1.44532309400525        0.60067075075573
H            7.43599809068531        0.86528088692305        2.27415469246125
H            7.78085194277506       -0.26907169251589        0.95240547011265
H           -0.04752704775815       -1.89727199029847        0.48742972602760
