46
 energy: -86.338663746849 gnorm: 0.000435658182 xtb: 6.5.1 (579679a)
C           -6.14240097296662       -2.22744206975396        0.36549513613666
O           -5.03745333602348       -1.37080183446820        0.72601302880252
C           -4.01327836861111       -1.36042415351432       -0.11367036996585
O           -3.95339452272868       -2.03829788367609       -1.10670698256698
C           -2.91409906997744       -0.44699248803353        0.35250918456404
C           -2.72011668759836       -0.12322278834837        1.66449519920052
O           -3.50194151566520       -0.45089535797155        2.67813704183343
C           -1.55663524054235        0.67518203572335        2.05910070531206
O           -1.36754192246614        1.11536189093217        3.16661187241672
N           -0.62172320167865        0.89600858015973        1.02506476678162
C            0.49537616876846        1.74393459215670        1.47875225619678
C           -0.77595904746762        0.46054872402959       -0.23940066815125
C            0.42350331958657        0.45898251879080       -1.20127903279685
C            0.39557864880327       -0.70712178318436       -2.20856459624097
C            0.55203111034960        1.80480187750176       -1.93303295624339
N            1.58369353273917        0.18993704287401       -0.34719719326068
C            2.87509723771973        0.42967897719646       -0.72682411562734
O            3.22384453635729        1.07378579049653       -1.69117565229274
C            3.80096529445851       -0.17621492908546        0.25582202096776
N            3.45489278604996       -0.84465730071818        1.31644028393855
N            4.60554489835008       -1.21185071539824        1.94015719868581
C            5.58360676781068       -0.74420146797690        1.22070529312747
C            7.03486114153813       -0.87701610807219        1.47173725835888
O            5.13620230374480       -0.08078922296033        0.14539331377860
N           -1.95790358650508       -0.05206690576567       -0.58940872934754
C           -2.40263924506282       -0.05544004411439       -1.99522338757107
H           -6.51199027322254       -1.94231175905375       -0.62039118097474
H           -5.80851638050367       -3.26592262831439        0.34949444354519
H           -6.90505643013135       -2.07559894346261        1.12448761352287
H           -4.30287806703968       -0.94029038224506        2.41447390574439
H            0.07363873612516        2.49173288196367        2.15070838801005
H            0.96358768455767        2.23630126518628        0.63773628698620
H            1.21747901356923        1.13651377655891        2.02208654069862
H            1.42358843222218       -0.90003870994414       -2.51375466723997
H           -0.00522692551973       -1.60813235627587       -1.75006999346983
H           -0.16910090619405       -0.46401106855114       -3.10314740576965
H            0.99814124980393        2.56281269844374       -1.29364015171732
H           -0.43024216972072        2.15039882011849       -2.24788214034360
H            1.18021111824042        1.68213053421842       -2.81310169616237
H            1.45993856913303       -0.54732285364970        0.33298102952882
H            7.49114647360215        0.11024619159111        1.54282571300592
H            7.19805578067173       -1.42443413844183        2.39684143170722
H            7.50647397975454       -1.40776081655775        0.64439941929456
H           -2.27756516059901       -1.04142615800347       -2.43560308423683
H           -1.84627833440173        0.69286510308595       -2.54698974043722
H           -3.45551541932963        0.21553856652612       -2.00540458772966
