46
 energy: -87.003965834894 gnorm: 0.000554412350 xtb: 6.5.1 (579679a)
C           -6.36303035753088       -2.48468245433382       -0.02403224461498
O           -5.46151685556430       -1.53989876602594       -0.59058397964736
C           -4.34944583691506       -1.25786627844388        0.17826607589136
O           -4.19646608379241       -1.80738785386305        1.26866346192460
C           -3.44846969126920       -0.30137570995228       -0.41668936815171
N           -2.34927053128339       -0.01010604257883        0.36526219286293
C           -1.43453548089145        0.81456741732246       -0.01680238327787
C           -0.31126727610264        1.08946457261657        0.98686340069172
C           -0.46958511170443        0.12984790039656        2.18052087430547
C           -0.43619438187047        2.53912371596033        1.48643385321789
N            0.97420454916271        0.85666184249290        0.31732547457264
C            2.17907817636044        0.92389879265856        1.09545032907292
O            2.27197845064082        1.64117455452540        2.12479617112836
C            3.19968916878232        0.17048816446153        0.52225063533109
N            3.12798563078139       -0.63274943949334       -0.60189146644718
N            4.35605703198225       -1.14674705356991       -0.70342881215831
C            4.66303312660041       -2.04433621438876       -1.79213103064106
C            5.16880294487327       -0.73803833648984        0.24267498497550
C            6.59329692477447       -1.09515161795912        0.43744347267815
O            4.51937556156679        0.10179574183101        1.06765604459367
N           -1.49716767785513        1.45012467934715       -1.23789107311174
C           -0.50226361780557        2.39126884689797       -1.74478882336895
C           -2.60433777105192        1.27258397704580       -2.10552970289430
O           -2.63905349682013        1.91423757737539       -3.17040315688358
C           -3.58662482752024        0.34736430337405       -1.65530965395447
O           -4.64764270732914        0.16519110985018       -2.50304713953525
H           -7.20249720397331       -2.57812949661326       -0.71096330629625
H           -6.71951860948160       -2.14060585337711        0.95228007091088
H           -5.87497926993791       -3.45696629767295        0.09852537569554
H           -0.40964124921559       -0.90404086009324        1.84213407213176
H            0.31836700109156        0.31387553249332        2.90917351837079
H           -1.43647924288906        0.28496508232276        2.65785601073001
H            0.18806094758512        2.69175154396593        2.36516407631621
H           -1.47330616744932        2.73986750140866        1.75585286761053
H           -0.12852434549006        3.24904771143539        0.72167414011299
H            0.95168899185116       -0.00132512510896       -0.22514894471427
H            5.36927583975103       -1.56744170136816       -2.47107197593917
H            3.73699632943984       -2.26916651053364       -2.31611951026728
H            5.10334216815616       -2.95812951290927       -1.39697054738842
H            6.70888024603508       -2.17390593036563        0.55141617462168
H            7.18996337639427       -0.78412617061426       -0.42129237488018
H            6.96769535042292       -0.59858558811472        1.33036533599802
H            0.44519486212121        2.26674708393522       -1.22781240308633
H           -0.35392899378543        2.19938750790171       -2.80956324272885
H           -0.86228150621939        3.41617162970795       -1.62459844039754
H           -5.27494138462502       -0.47884297545400       -2.13690303335584
