47
 energy: -79.490721899154 gnorm: 0.000487253152 xtb: 6.5.1 (579679a)
C           -4.29057071451391        0.35522804367469       -1.47999096972912
N           -2.88895306671539        0.40179293803846       -1.05245310999389
C           -1.96065236764858        0.21029843663181       -2.11988442769994
O           -2.33453709781747        0.13117445883101       -3.25188582069528
C           -0.52530698584520       -0.05411357325769       -1.68800072563921
C           -0.47670951673231       -1.56850336240372       -1.33165391713694
O            0.35736773043131        0.23940288939926       -2.72132588863925
C           -0.22660115689262        0.73962102780676       -0.45824164912641
C            1.11290586517626        1.34496583869666       -0.08437693105985
O            1.18057055168137        2.15184259323559        0.82576932556693
N            2.15809401378111        0.91016774770863       -0.79822859070616
C            3.51707022729440        1.34222309320837       -0.48943499595216
C            4.26826692053796        0.24415315165000        0.23214589757134
C            5.45807397032131       -0.25570329304846       -0.28950849564232
C            6.15391576802696       -1.25540450608734        0.37702160836786
C            5.63164394566427       -1.74010737287680        1.56231750473563
F            6.29625299246026       -2.70685088223834        2.21079872265780
C            4.44814766359427       -1.26944650232677        2.10432157599188
C            3.76743259226005       -0.26849075362639        1.42760191790017
N           -1.16853478895418        0.89873924690304        0.40907501484366
C           -2.45994674652509        0.56552257181118        0.19376863595279
C           -3.32504252571760        0.44101155404044        1.42615721134701
C           -2.53806291726903        0.86184470653055        2.67409116546253
C           -3.72167129571729       -1.04341396449564        1.53017821563523
N           -4.52848186191029        1.24262505403865        1.27792158887057
H           -4.39700550190569        1.00443334250012       -2.34841330801037
H           -4.52983130517509       -0.66903710303916       -1.76163346427203
H           -4.92422857722317        0.69130284318461       -0.66355489946080
H           -0.78735213255149       -2.14300716876048       -2.20124204580243
H           -1.13057463773152       -1.78488931566427       -0.49083240910870
H            0.54986269470096       -1.82234842389681       -1.07808370296562
H            0.00871456229011       -0.06211365686490       -3.57385557867016
H            2.04365255895648        0.23288297918220       -1.53378695112556
H            4.01314465548617        1.59627771241368       -1.42903101117186
H            3.44707846773775        2.23713552683643        0.13723555131278
H            5.84608027896542        0.13528170587388       -1.22246139367450
H            7.07901117701513       -1.65469553991607       -0.01797134972709
H            4.06888148956439       -1.67979177006044        3.03100328907996
H            2.83677741272988        0.11451237877088        1.82877173309859
H           -2.21427890151301        1.89724350106912        2.58285651939795
H           -1.66331930077400        0.22602224322946        2.80078932137230
H           -3.18045802511950        0.76521278948985        3.54680262260707
H           -2.83246250974998       -1.67111284450882        1.55867837142503
H           -4.28863804073760       -1.19002285553477        2.44766093686040
H           -4.33732588260380       -1.33463333765235        0.68229144287939
H           -5.20038361823506        0.96999720577080        1.98060604100519
H           -4.31201606308558        2.22276864573292        1.39568042206727
