42
 energy: -83.002935050535 gnorm: 0.000824310369 xtb: 6.5.1 (579679a)
C           -2.96001468433835        2.26412916239023        2.45512237420002
O           -2.75981023491234        1.26015416180584        1.44468603103670
C           -2.81858369354941        1.65883635644848        0.18940049965528
O           -3.05031363190400        2.77812971866880       -0.17597571097434
C           -2.56079717043369        0.48000601004448       -0.79382392274469
C           -2.54809887703410        1.01701563464364       -2.22562767548187
N           -1.25702211362564       -0.04695467457176       -0.45652098434875
C           -1.12533054839552       -1.04988383997371        0.30765704499513
C            0.25832484843351       -1.54689859265230        0.68024420393401
C            0.45346864024530       -1.45775991591854        2.20050095787318
C            0.44858217417579       -2.98428025854186        0.17537242218942
N            1.20748783806111       -0.66281363665516        0.01329061967379
C            2.54507029238771       -0.79155674777381        0.09593045220968
O            3.13999155082054       -1.64433223440103        0.73240176282906
C            3.22710666799557        0.25817075947196       -0.70543094309446
N            2.64890153534341        1.17073533738299       -1.42693834656890
N            3.64239139618573        1.91536041732386       -1.98852049465996
C            4.76391653553605        1.40891521833507       -1.57318375845214
C            6.13525085920736        1.86233595663569       -1.89408304900042
O            4.56730892744500        0.36011134027208       -0.76081710400979
N           -2.19087728123928       -1.75534816854522        0.84753246135034
C           -3.49607337683592       -1.55736780246994        0.50460249831072
O           -4.40034846855262       -2.19617119818151        0.99061854959527
C           -3.70743108299822       -0.48632087479367       -0.57178066367579
O           -4.74448438073064       -0.41003936576946       -1.17676523165453
H           -2.19973900658122        3.04080555457871        2.35723025146465
H           -2.86696248198424        1.75727147016884        3.41230056752842
H           -3.95289928364875        2.70439481972301        2.34666261976614
H           -1.78572571790941        1.78755404634708       -2.31643046379944
H           -2.32721510479848        0.20726846178363       -2.91745147733638
H           -3.52183738830506        1.44184306211449       -2.46396694018813
H            0.29539602518352       -0.43400353132367        2.53589355599719
H            1.46520217860590       -1.76767950647906        2.45669837811721
H           -0.25047588603134       -2.11297739460448        2.70872699761948
H           -0.29949302575698       -3.63712669925910        0.61955462784888
H            1.43789643653897       -3.34214947926182        0.45491566278086
H            0.34991195788466       -3.01359676833139       -0.90863963361631
H            0.81341489010024        0.08949566389110       -0.54148273120051
H            6.72222181028402        1.02819707728088       -2.27835298291986
H            6.09437810928238        2.65505306133696       -2.63736469507765
H            6.62508918278110        2.23253022718371       -0.99294255675490
H           -2.01777541693227       -2.48105282832329        1.52618282658331
