16
 energy: -34.296769563483 gnorm: 0.000480767691 xtb: 6.5.1 (579679a)
C            3.29735689306444        0.11627103633352        0.55676179866060
O            1.87734341493353        0.24564302876693        0.41816518039460
C            1.37845676348204        0.06410188282018       -0.79574095574447
O            2.03132520815449       -0.19879290075225       -1.77680211177850
C           -0.09520643746078        0.22464217421659       -0.82244106935344
N           -0.86352539731476        0.13607317615645       -1.86682686511728
N           -2.13285932976231        0.35480985290443       -1.43907514807005
C           -2.06551538255189        0.56409665724399       -0.15770842957727
C           -3.18197618718065        0.84245715142497        0.77048164474058
O           -0.80573611667145        0.49546554192383        0.29137850480858
H            3.52947550411151        0.36308899799169        1.59007086654516
H            3.60035266881024       -0.90842696215539        0.33134354470725
H            3.80258294862601        0.80388869123286       -0.12475893284061
H           -2.97219261509373        1.74329052780686        1.34553351183850
H           -4.10320109500977        0.97040927930187        0.20764385324207
H           -3.29668084013688        0.01567286478352        1.47197460754433
