46
 energy: -87.041707289110 gnorm: 0.000979140243 xtb: 6.5.1 (579679a)
C           -2.92990468125061        0.67422908465634       -4.50705796109925
O           -3.05862460184310        0.50524086294642       -3.09569596939139
C           -1.89046516662932        0.31155494798566       -2.41834538439331
O           -0.82596862276767        0.30473265128717       -3.01007605049127
C           -2.05942310922728        0.11519577054635       -0.97913108890243
C           -3.22506123850345        0.13113838235287       -0.28024666717227
O           -4.44484581448643        0.34181062056092       -0.80397617827199
C           -3.25102113296993       -0.01230399555244        1.27547458180452
C           -2.88724694313027        1.40540633144719        1.85041725681821
O           -4.29642478322715       -0.55111195521194        1.78068044093291
N           -1.93635648456141       -0.88579920266193        1.55907966915690
C           -2.03866474259685       -1.65571261061128        2.78381532070060
C           -0.81831092515846       -0.64628445572499        0.85923518114007
C            0.59502933868843       -1.01927429110913        1.35664555407385
C            0.85930996369964       -0.61504419518536        2.81208973322759
C            0.86850467620225       -2.51292320619916        1.11984948106375
N            1.50982403897882       -0.25232075694943        0.50097849897814
C            2.84296559868168       -0.31840387684726        0.52292933084680
O            3.52917042730586       -0.96099409321061        1.30808177239158
C            3.43794475692598        0.53198485754936       -0.55018876602497
N            2.79118344238874        1.23702972961194       -1.42687158150375
N            3.72730260308218        1.84647573957828       -2.21188680924088
C            4.88434003496980        1.47284984321574       -1.76217658142375
C            6.21901928140191        1.86047990726665       -2.27058554695034
O            4.77137765651837        0.64265979189975       -0.71384725248826
N           -0.83358575496355       -0.12544267935266       -0.33196618219762
H           -2.32182613986884        1.55489342429856       -4.73255600255862
H           -3.93397254041706        0.80435186092570       -4.90515933223593
H           -2.46207395108875       -0.20740844604817       -4.95448461129013
H           -4.42527698752640        0.45808624112468       -1.76750588041210
H           -3.69414351194707        2.09140592544612        1.59722905819840
H           -2.81037970182985        1.33367510408508        2.93355496081765
H           -1.95047524545831        1.77870667479841        1.44174911463451
H           -1.79244908342836       -1.05471785612160        3.66480416297369
H           -1.39974837108884       -2.53592283678477        2.75287776306015
H           -3.07860683268693       -1.98677633374753        2.87935724067451
H            0.46738850309208        0.38333836448321        3.00309542675487
H            0.40407390355437       -1.31807574463191        3.50383413481170
H            1.93131781530141       -0.61271705964853        3.00277972527852
H            0.16476952325498       -3.12863402520565        1.67449710292773
H            1.87688824309565       -2.76336903529563        1.44588926790678
H            0.77181922427972       -2.73819213958785        0.05818039827746
H            1.04464436514719        0.24924907261568       -0.26127218593496
H            6.76381975413727        2.41233836630606       -1.50437968470733
H            6.79718300682860        0.97063068551751       -2.51883722775703
H            6.10697520912050        2.48396755517555       -3.15398323301031
