42
 energy: -82.984392431188 gnorm: 0.000502676152 xtb: 6.5.1 (579679a)
C            3.42244848093996        3.61311113217770       -1.91892431997721
O            2.80359661642170        2.83144561744581       -0.88858192614002
C            2.74351073732334        1.52719513210680       -1.08180265054281
O            3.16032861822301        0.95541395162624       -2.05717151212303
C            2.06363669123677        0.80770814402732        0.06732798716948
C            1.92466951302535        1.43911882766625        1.41275159601454
O            2.67253523063956        2.27514913002655        1.84830750123420
C            0.75488072389542        0.87759813921560        2.22662397541351
O            0.21657321784509        1.49170695781057        3.12338159126687
N            0.35676909634965       -0.34962608523677        1.82603193769570
C            1.02049412892247       -1.17549523662268        0.82933432104292
C            2.12662038061436       -1.99119039364925        1.51496359530780
C           -0.04773917142747       -2.05169750995200        0.10090957332388
C            0.57430673536844       -2.74107085507277       -1.11790910401978
C           -0.68619844141112       -3.08688789625192        1.03152271418732
N           -1.07566679331036       -1.10279415492494       -0.34136608108230
C           -2.16712900998189       -1.45436807627390       -1.05206478644523
O           -2.38749997810281       -2.55876994449631       -1.52052468118748
C           -3.11085614999794       -0.32278541126895       -1.23993353118265
N           -4.21916488517179       -0.32430406656144       -1.91273829264212
N           -4.75102928530183        0.92483914805147       -1.79901938988451
C           -3.93618880245259        1.61273769561318       -1.06162806074581
C           -4.07091889112499        3.02416069171866       -0.64080309957535
O           -2.87563967391049        0.88269635675563       -0.67523148393712
N            1.66135230631456       -0.37652175527712       -0.17384175236648
H            3.41114439812615        4.64409281019911       -1.57247335271914
H            4.44735038783137        3.27215966215533       -2.07891697081120
H            2.85684039315793        3.51499505175413       -2.84765425390762
H           -0.33921566799930       -0.79415124949486        2.40440798104929
H            1.69791210357778       -2.61260271502542        2.29662559307301
H            2.64377903440371       -2.61698524905616        0.79151798425209
H            2.84023192661430       -1.30160242164173        1.96287044588439
H           -0.17610166143571       -3.34656810636243       -1.62258953530121
H            0.96283872210713       -1.99912728292441       -1.81382689067755
H            1.38663049017598       -3.39245203536800       -0.80231384028029
H           -1.11624396264549       -2.61159713399968        1.91034207908948
H           -1.47996815749454       -3.60687764398809        0.49639299922694
H            0.05289654347335       -3.81956912539988        1.34800463956437
H           -1.05876362850081       -0.18593952811333        0.07906696514133
H           -4.17543212170769        3.08058663459829        0.44277281060845
H           -4.94696747064310        3.46340887169311       -1.11206009440779
H           -3.18061772397152        3.58485792230378       -0.92352168059037
