20
 energy: -37.626377214741 gnorm: 0.000404393925 xtb: 6.5.1 (579679a)
C           -2.52859014342771        2.31234496055901       -0.34936505367220
O           -2.79206813538894        0.89597535201190       -0.23394835211850
C           -1.85949761738213        0.04635567207697       -0.13030586425776
C           -2.19515518186562       -1.37973608355592       -0.01604834907605
O           -0.63581972132317        0.49454690991337       -0.13304045939569
C            0.48329369206742       -0.26402089893060       -0.02725759556552
N            0.59233962412569       -1.54611716901188        0.04946930183361
N            1.93273468121594       -1.78734682413512        0.13885070750263
C            2.53376806086079       -0.63851996170575        0.11036910377571
C            3.98145807192394       -0.36173811671837        0.18761571512340
O            1.64836955738257        0.37947520706356        0.00313557632880
H           -1.89870600463247        2.62868032455951        0.48106132481084
H           -2.02384669417363        2.49941113863263       -1.29665838146530
H           -3.50207386281806        2.79493539968351       -0.31805766590968
H           -1.74458954938169       -1.78306389866798        0.89364468473661
H           -3.27425276908235       -1.51484032305458       -0.00995524115827
H           -1.74120169951198       -1.92085718682647       -0.84970478147342
H            4.29315416536037        0.23413411036046       -0.67009787040973
H            4.53145560563808       -1.29976089184235        0.20729187428094
H            4.19922692041362        0.21014227958807        1.09030932610958
