33
 energy: -58.552673970747 gnorm: 0.000695124927 xtb: 6.5.1 (579679a)
C            4.12351674003921        0.43447396410464        1.41666035075880
O            3.31930409247199        0.21002306693496        0.26272027589311
C            1.98195885665202        0.31946861978898        0.43066581762385
O            1.49574570473934        0.62026957304014        1.50644759915602
C            1.19836239786871       -0.13098140866375       -0.80762843933916
C            1.91194263575959        0.26292161934678       -2.10673628316632
N           -0.12601452370949        0.48665187427942       -0.78883798803859
C           -1.07188152949015       -0.10605072386806       -0.15998148450319
C           -2.43440604546444        0.57370853972848       -0.07798912060002
C           -2.77869041023092        0.85917853771672        1.39432418363315
C           -2.41729394620370        1.87860285646090       -0.87767579976419
N           -3.43536500428987       -0.31421388691548       -0.67791696656155
N           -0.94977247047841       -1.30699439795803        0.46917264113526
C            0.09922827295442       -2.22594818511057        0.06180986464469
O           -0.06714310122117       -3.45287384750408        0.31668246452748
C            1.12160185886843       -1.62066926952040       -0.60190115919151
O            2.21877153854805       -2.37967732283100       -1.08652286072674
H            5.15643129430206        0.25041574896844        1.12620165643607
H            4.01477804639448        1.46612281838740        1.76287359503596
H            3.83715303793462       -0.24325068151212        2.22650828000854
H            2.03146288942407        1.34508753223634       -2.15493629896343
H            1.31616768053497       -0.06249982629279       -2.95911770948877
H            2.89247135140140       -0.20733403563755       -2.16096962914380
H           -2.03409825306056        1.52313786349046        1.83422233427641
H           -3.75682727179561        1.33292558276248        1.46055809082460
H           -2.80528912483295       -0.06780301492038        1.96519147132398
H           -1.64871695981773        2.54761786339331       -0.49047177908805
H           -2.20181299525322        1.66948354082028       -1.92587996454038
H           -3.38484883522668        2.37390376881171       -0.80818341905812
H           -4.32723807419116        0.16035517613802       -0.68060871954505
H           -3.54751080688849       -1.13938145866631       -0.10170367278578
H           -1.78442745949044       -1.76046916502184        0.80223233889411
H            2.05243841375254       -3.29620132198713       -0.82400366966772
