42
 energy: -83.645410100274 gnorm: 0.000748496040 xtb: 6.5.1 (579679a)
C           -5.67470714034522        2.49808098936086       -1.08344432642437
O           -4.54747327812696        1.94865195847523       -0.42986151491668
C           -3.71554048970064        1.18385370849898       -1.22471221561706
O           -4.00365079258536        1.02640379551603       -2.41632874717247
C           -2.59046458659130        0.62480293664620       -0.54624659639317
C           -2.24970229881812        0.84386141867987        0.80343622060466
O           -2.88109134756748        1.51169332105719        1.64719322426958
C           -0.93079953686827        0.13563133651573        1.25800440782443
C           -0.95493976526219       -0.11324405398682        2.76912105178281
O            0.21166760041505        0.90747784263955        0.91461101491040
N           -0.87932772289506       -1.13799153298734        0.55780375094510
C           -0.88240539670211       -0.90812412961734       -0.83697737536765
C            0.30262100597167       -1.49374632931091       -1.58517107067805
C            0.32727695829146       -3.02695252127220       -1.46932089100457
C            0.23373471753775       -1.07625754835014       -3.06168913740260
N            1.43935849272391       -0.87280056464502       -0.88363908871064
C            2.64721417620192       -1.14393398219168       -1.30957770273086
O            3.03476060921335       -1.87998889842827       -2.24758616075982
C            3.70847349362856       -0.41568385761756       -0.51526092924840
N            4.98456904463910       -0.38367526545730       -0.76822002660018
N            5.56511355793514        0.40748227148173        0.19510605847240
C            4.60582765910891        0.80168460076623        0.96802771298761
C            4.71899090028013        1.67563522910006        2.16070568513851
O            3.41279667526318        0.32382352242929        0.57971024479435
N           -1.70335503243546       -0.10531934030472       -1.38394408299924
H           -6.32643027032167        1.71051269765599       -1.47948995703076
H           -6.22394292044686        3.08359976413714       -0.34558351293739
H           -5.37460796618927        3.14910642455374       -1.91306718158442
H           -1.79766446190801       -0.75235725039632        3.02745936419612
H           -1.05364149598488        0.83767708846179        3.29122325584606
H           -0.02983807778362       -0.59512342666332        3.07815000186835
H           -0.04745555249687       -1.65053182824252        0.83543002043461
H           -0.60146399174573       -3.44244872796219       -1.86217511549482
H            1.16227794076203       -3.43737529853986       -2.03625740194592
H            0.43317073365703       -3.33128316583136       -0.42863038757931
H            1.06663016561740       -1.49862918793358       -3.62201250182150
H           -0.70069482672921       -1.43356839856321       -3.49747314000461
H            0.26131875979771        0.01119268929208       -3.14561209679496
H            0.81472500730688        0.33411518760771        0.35194094854649
H            4.38004763254477        1.14629149918749        3.05085335192581
H            5.75637663295907        1.97135431222896        2.29368407232061
H            4.10224518765581        2.56610371400774        2.03895077435674
