42
 energy: -82.946524475301 gnorm: 0.000326258572 xtb: 6.5.1 (579679a)
C           -5.35775016996565        0.06262593120900        2.65340587200126
O           -4.32800575807792        0.10623382949641        1.66668990081486
C           -4.52124418788673       -0.66323329990690        0.57705454892599
O           -5.51200786142448       -1.34976796142793        0.44306954294430
C           -3.40529136359323       -0.55509838721868       -0.38422433461699
N           -2.38255781964378        0.25672065098750       -0.01194102060073
C           -1.36456075565576        0.43884327028838       -0.79013336990178
C           -0.23566330914718        1.34653234336175       -0.36395647445523
C           -0.42513943024855        1.77208466916002        1.09246822799673
C           -0.14823760738187        2.56095987913312       -1.29688222431677
N            1.00268867077093        0.54453158287489       -0.49403295516999
C            2.20542303652513        1.01301077989685       -0.18851477921123
O            2.49739929560534        2.10705078188832        0.22749243219285
C            3.36310488516814       -0.04426028576838       -0.46983535712182
C            4.25251087855251        0.54493629011192       -1.56319302872094
N            2.82595370919164       -1.31876664360385       -0.78286164931368
N            3.15541736734783       -2.15364052049184        0.15032878582063
C            3.90927066370718       -1.50265248581040        1.04599148382268
C            4.49877314395585       -2.08564910030536        2.25980158609970
O            4.08100632668296       -0.24604722263964        0.73222303807919
N           -1.26303594863782       -0.17190594853646       -2.00874742550102
C           -2.21474893750189       -1.03497479343938       -2.52125505909618
O           -2.05287203448096       -1.53874974245925       -3.61756063365157
C           -3.41453431725699       -1.27366804200012       -1.62698753674062
O           -4.30048104850555       -2.04158112068620       -2.00300284890575
H           -5.45565493523768       -0.94951858032870        3.05542453256608
H           -6.31350720579641        0.37085294220818        2.22031856460276
H           -5.06460002724358        0.75194569775000        3.44274405260966
H           -0.43662563518244        0.89569988729805        1.73833599140449
H           -1.37586690238002        2.29396413918903        1.18987922047565
H            0.38007725449909        2.43563926137682        1.39951608221012
H            0.65556125352119        3.22077675423703       -0.97694451579439
H           -1.08920799382019        3.10788699062110       -1.26787907805935
H            0.04526469862119        2.23792423064610       -2.31776422122963
H            0.93318861583824       -0.40328333275999       -0.83752238830392
H            5.10320847077307       -0.11279563250224       -1.72519543937150
H            4.59789217965514        1.52554229432193       -1.24121860994361
H            3.67747167348531        0.63748421889501       -2.48088606321699
H            4.95482515545734       -1.30956320349249        2.86935094693080
H            5.25745984312171       -2.81747310140324        1.97585574516170
H            3.73257139660523       -2.61332829769846        2.82804788200024
H           -0.46747427002053        0.01259527752175       -2.59745842341934
