20
 energy: -37.575182086846 gnorm: 0.000460156217 xtb: 6.5.1 (579679a)
C            3.81200084730558       -0.46802151334755       -0.60830005960568
O            2.39091312431985       -0.27569640490176       -0.45037233230190
C            1.87828956803258       -0.50218028895186        0.72191607001598
O            2.42883632129002       -0.85835163478126        1.72078634203463
C            0.36507903559850       -0.24609931349227        0.70268351848166
N           -0.44818282317277       -0.38125739935132        1.80336434369409
N           -1.62038286922550       -0.10025486226145        1.43755291837243
C           -1.64307568580969        0.23741593370636        0.06179434119759
C           -2.49837426217674       -0.76143847498121       -0.73491442090597
C           -2.10627839120259        1.68806845098334       -0.14681630001452
O           -0.27888085918579        0.10972894932985       -0.32402271943560
H            4.34302446700426        0.22042799305268        0.05043144956661
H            4.06723182368633       -1.49765749347309       -0.35394139547733
H            4.02676840604185       -0.25583175138136       -1.65227603326233
H           -2.11211863915852       -1.76595278803544       -0.57657992099808
H           -3.52542114112072       -0.69441787445446       -0.38461075768193
H           -2.44193957479267       -0.50185347997514       -1.78926019731081
H           -3.12896534245495        1.77965627579148        0.21082345603227
H           -2.05640984622131        1.91892465116790       -1.20820009101722
H           -1.45211515875777        2.35479002535634        0.41085478861643
