43
 energy: -83.133144776203 gnorm: 0.000489976063 xtb: 6.5.1 (579679a)
C           -3.58015812500238        2.58123061608999       -2.00535093628654
O           -3.00717615405884        2.15462762578996       -0.74242839241278
C           -2.40858509155366        1.01835703353948       -0.69627921799900
O           -2.24304412717439        0.19515633552921       -1.53374984602257
C           -1.79667356571122        0.79031490260470        0.82017339061751
C           -1.46176839234473        2.14681451147379        1.43409648094863
N           -0.63552343600968        0.00515699816012        0.59462127054514
C           -0.69056045513957       -1.27036757941402        0.55578746158038
C            0.54124904464696       -2.08001514194529        0.21718407303582
C            0.89475897589394       -3.01024532394947        1.38710585028328
C            0.28340631999553       -2.86959026447502       -1.07659991892871
N            1.62112004440136       -1.12606285517129       -0.00109520711575
C            2.87630252276267       -1.48781978700301       -0.34199226804735
O            3.27043788306952       -2.63514979754363       -0.46389330923259
C            3.76169743679145       -0.31936611607638       -0.56629621401407
N            5.01133374116537       -0.32932345953431       -0.90932911491269
N            5.39957303194220        0.97114214119762       -1.02119932366485
C            4.36285225767819        1.69672988027012       -0.74068088324242
C            4.26951629245531        3.17228072070569       -0.72482005895131
O            3.29118094860903        0.94206241137380       -0.44261139652078
N           -1.84841054922057       -1.98462601560240        0.82133630567066
C           -2.99317630054929       -1.41795988857051        1.27834688857514
O           -3.99562013992924       -2.00905270194173        1.60552135047168
C           -2.92156372409612        0.07222789436528        1.37811770030472
O           -3.92870082488855        0.67728674646500        1.87433317553056
H           -4.49640751372736        2.01810021481217       -2.18163853206950
H           -2.86378241766652        2.40374263263735       -2.80721911515567
H           -3.78955868659317        3.64156728323198       -1.88932052054031
H           -0.80652192295954        2.69857728397376        0.76499775555522
H           -2.37244997653910        2.71380480513579        1.61062224279007
H           -0.94845996167900        1.97575117410140        2.37848904498818
H            1.08619965240552       -2.42183354164823        2.28254521012081
H            0.07416346339919       -3.69767481627500        1.57923852412966
H            1.78463053421096       -3.58567710372869        1.13647288187991
H            0.02454928187764       -2.18336269235332       -1.88130099392693
H            1.18167457484052       -3.42263486323685       -1.34681064576834
H           -0.53255385841979       -3.57330418654357       -0.93010475694818
H            1.38066760351606       -0.14750266700819        0.06146748049812
H            5.20967463085183        3.60351322503491       -1.06122506355756
H            3.45983245097052        3.49889460427695       -1.37561182987275
H            4.04884210168747        3.51981251196701        0.28441746922477
H           -1.85455348550625       -2.99453179613737        0.74841799226256
H           -4.65841408439810        0.06895404542064        2.13455999618308
