42
 energy: -83.621980645469 gnorm: 0.000483894374 xtb: 6.5.1 (579679a)
C           -5.02440234951057        1.78847943851487        0.96630139320816
O           -4.43892838073749        0.61200409564852        0.50142245876067
C           -3.13151216468176        0.18342703465698        1.27967721058533
C           -3.67286310558140       -0.78868637313840        2.38963653973211
O           -2.48625521913160        1.19517675250746        1.75723516043170
C           -2.37023885591541       -0.62931388719101        0.16891303107837
N           -1.26671958280605        0.02151671987633       -0.29500404031198
C           -0.52084577932831       -0.48085435234610       -1.22274514894058
C            0.70343595512151        0.29067828290810       -1.68720228890727
C            0.39212096258747        1.78788508422973       -1.61700909317551
C            1.15982707793664       -0.09028797064587       -3.09833015054374
N            1.82444216289773        0.04888644429600       -0.74832655897757
C            2.29652286134850       -1.17427507878369       -0.46824678539824
O            1.83707156217591       -2.22981664048226       -0.88024975325092
C            3.46094988432348       -1.15100619783181        0.46210259379601
N            4.01724542395058       -2.16641112268958        1.04815682782418
N            5.03311012601014       -1.67126415425285        1.81444837989847
C            5.03431494265674       -0.38684183573448        1.64618102167725
C            5.95053928317501        0.60609860634896        2.24803271118273
O            4.06179217260245        0.00932899638693        0.80736177223010
N           -0.82166978772751       -1.69957209649649       -1.78481071907349
C           -1.90299028219634       -2.45818388571758       -1.40991622650298
O           -2.09527368662250       -3.54557429423665       -1.98644628196363
C           -2.76157065798227       -1.88976516996724       -0.32538869842082
O           -3.75561369849621       -2.57550088812305        0.06748798996492
H           -5.74194770514783        1.61155068444369        1.78993554117726
H           -5.57596048276342        2.26662606664520        0.14447484055616
H           -4.27329484250752        2.51303457304708        1.32984955685680
H           -4.45374955040632       -1.44957888192238        2.01832291069277
H           -4.07414116092343       -0.18044796304192        3.20078887031933
H           -2.84449089136789       -1.38244125310966        2.77752544744988
H            1.28343484438056        2.37406662687642       -1.83001020453810
H            0.01920039943351        2.04059026945009       -0.62294502002378
H           -0.37306076976346        2.03532675695903       -2.35146341565442
H            1.97028590674006        0.56618588792462       -3.40902739498842
H            0.33265405246814        0.01958201653950       -3.79797472603876
H            1.52134583665442       -1.11674001143334       -3.12986580766855
H            2.36162813434874        0.84620828813435       -0.45624048555202
H            6.48862908091165        1.13700626148352        1.46341829741086
H            6.66166784036513        0.10226627361476        2.89751335166288
H            5.38525791695049        1.33940383923255        2.82278495976823
H           -0.20995047345917       -2.09128994256779       -2.48036806631840
