43
 energy: -83.882303934634 gnorm: 0.000824811409 xtb: 6.5.1 (579679a)
C           -4.16638178875224        3.26733808869689       -1.08204638651131
O           -3.38795944016363        2.57066893181714       -0.10925437561330
C           -2.55662815782566        1.62137042777588       -0.58747212565076
O           -2.48124341656837        1.39724879938531       -1.77841882356522
C           -1.78393807987155        0.89421695055102        0.46007466936128
C           -1.47469856052264        1.43454624936576        1.71435988812653
O           -1.92169143264279        2.68244969530117        2.16603323652817
C           -0.49806736071423        0.79029403418694        2.52863131581846
O           -0.03915203643654        1.19312195731020        3.60842809310261
N            0.05030493398924       -0.37396436593619        1.95786810031877
C           -0.76122335693264       -1.15716820842656        1.03269740441683
C           -1.84795900083512       -1.93113106466089        1.81268613989415
C            0.19155228142764       -2.11049680160243        0.23836372671956
C           -0.56591213945084       -2.79691300460878       -0.90430776512691
C            0.88256751443475       -3.15810051523504        1.11793925462849
N            1.21067620355808       -1.21161504010097       -0.32015566009662
C            2.21890360032703       -1.57850752068827       -1.11287732460363
O            2.42367450059984       -2.70444327008955       -1.55371398450261
C            3.12806174301905       -0.44613528971661       -1.45999057991271
N            4.14156557938352       -0.47377518341831       -2.27013950768585
N            4.67635176709714        0.78284280467538       -2.27633625020083
C            3.95637147659745        1.49702578885115       -1.46904092548410
C            4.13071118691233        2.92600409623732       -1.12682809532886
O            2.95993382096018        0.78128581225209       -0.92161646409852
N           -1.39620330648178       -0.30671944665737        0.05140218224414
H           -4.80465714873097        2.56690739669000       -1.62719710001221
H           -3.51447461913326        3.78464938598613       -1.79122420323646
H           -4.77886873104898        3.98722938239634       -0.54345712395636
H           -2.77960314403405        2.89574238703061        1.77789857388824
H            0.54183785085695       -0.93159523777061        2.64247364779671
H           -1.40226843022332       -2.57812499344228        2.56519972969084
H           -2.44978298370016       -2.52903281160080        1.13188193149296
H           -2.49933297831273       -1.21524673722959        2.31298502574465
H           -1.30158139114925       -3.48835834785673       -0.49756245436539
H           -1.07998652555708       -2.04870832857309       -1.50872054748945
H            0.12081486295836       -3.35970167903788       -1.53441000156003
H            1.57129087606091       -3.74955526110765        0.51510692589130
H            1.44614722699799       -2.68377857970022        1.91949031772085
H            0.14592297168663       -3.83034691692309        1.55275467925251
H            1.18237379408207       -0.26057397302453        0.03150428260776
H            4.26501640855488        3.03865330077030       -0.05113863148908
H            3.24635799192610        3.49248054582302       -1.41883723731167
H            5.00117743767197        3.31991554229567       -1.64514755743349
