16
 energy: -33.392078260240 gnorm: 0.000407331364 xtb: 6.5.1 (579679a)
C            2.68758850021760        0.32939477384400        0.07048695690061
C            1.31964638180540       -0.14014496897279       -0.07382028076989
N            0.94835962770235       -1.43388021652517       -0.36604984829966
N           -0.30839627906231       -1.47013934793754       -0.42893787751773
C           -0.84446591940143       -0.18802350437333       -0.15571526389171
C           -1.73657859308926       -0.34578058613585        1.15924031224592
C           -1.74404477496006        0.37304293185745       -1.25897419866237
O           -2.71426280193307       -1.00742812314337        1.08619217811260
Cl          -1.18270148658761        0.47982221630081        2.50822136187275
O            0.29054129713569        0.61345324926718        0.05619713945501
H            2.71526123492382        1.34963856451858        0.44657394456128
H            3.24416274554382       -0.34989316171230        0.71965678982471
H            3.17251541321312        0.28491781474346       -0.91040429816821
H           -2.06718395088822        1.37347372381780       -0.98120478023434
H           -2.60505842592726       -0.28251159882880       -1.37212077997613
H           -1.17538196869256        0.41405823327986       -2.18502635545303
