20
 energy: -37.579535392407 gnorm: 0.000685951294 xtb: 6.5.1 (579679a)
C            3.92300978362770       -0.25575083621436        0.22804805693288
O            2.58235714654585       -0.67061883573354        0.55881722567190
C            1.60278331618377       -0.04429263603204       -0.03990358163463
O            1.69947567918951        0.84602179856330       -0.84253428729386
C            0.28113955479767       -0.58627868554939        0.41191212137727
N            0.01183650427990       -1.52556662604876        1.23666759565513
N           -1.34201719036350       -1.65851926903826        1.32468129212094
C           -1.89871552791794       -0.80176758133059        0.55450452016215
C           -3.32806695981297       -0.55954125388026        0.31316734223217
O           -0.90936276338926       -0.05026540418512       -0.08729459526025
C           -1.04897713195488        1.03632313981232       -1.06154045559200
H            4.58765075027361       -0.91639997600682        0.77968081278613
H            4.07847725677151       -0.35258702195083       -0.84710393158256
H            4.06517116440033        0.78257500593747        0.53025069292369
H           -3.59221315959402        0.46238561467359        0.58767647947289
H           -3.56745360788205       -0.70130273351137       -0.74127503482989
H           -3.90564019648210       -1.25937775295851        0.91503502974868
H           -2.11352173900993        1.18780517646756       -1.20567660812150
H           -0.55779087198340        0.71553215933653       -1.97760740319116
H           -0.56814300767975        1.91527771764887       -0.63750727157786
