46
 energy: -87.020948281971 gnorm: 0.000698919671 xtb: 6.5.1 (579679a)
C           -5.99493699850798        0.41348333211548        1.57999454506495
O           -4.94784299768322        0.95879989466483        0.78424142714211
C           -3.66594832894029        0.49406337020955        1.10014123719035
O           -3.28596821178874        0.70008478362804        2.42320346078847
C           -2.58407014185899        1.91373303356630        2.67962290707565
C           -2.81984194163840       -0.03771782485511        0.16629582062336
N           -1.53040697529634       -0.34218567532247        0.62025127218631
C           -0.63568821979113       -0.82312853078412       -0.17244298873054
C            0.71471689133805       -1.13288916055955        0.48465984883933
C            0.69727181606596       -0.64624853118639        1.94194161640182
C            0.99351506844338       -2.64229188956049        0.46485636050204
N            1.75579617135253       -0.38064999809424       -0.23172020363325
C            3.07755275532259       -0.47023477079569        0.04496914639803
O            3.60152122824932       -1.29725369351194        0.77838063673143
C            3.83668740371837        0.56419242244393       -0.69293713090196
N            3.33109898399643        1.46430632208867       -1.48959798937608
N            4.37399542159252        2.21949160269286       -1.94148275243852
C            5.44584368469058        1.73623635616762       -1.39451831788837
C            6.83683084175466        2.21292715653339       -1.56382022556722
O            5.17812301230404        0.69003805764594       -0.59570645713105
N           -0.85869832696377       -1.05654692587194       -1.49528227143424
C            0.10919932932179       -1.62129506666685       -2.42797032084957
C           -2.17316763925584       -0.84223207267792       -2.07772088739013
O           -2.31668468061912       -1.14497532610698       -3.28758773178066
C           -3.11509378697282       -0.31702174086190       -1.20638052704501
O           -4.40542018106649       -0.10703328680424       -1.71782390718472
H           -5.80347421716041        0.58278645197280        2.64551858873377
H           -6.10564784968335       -0.66445341743737        1.40287341322367
H           -6.91538531882190        0.92498198245395        1.29535393447306
H           -1.62147003849233        1.92371637384731        2.15219292741624
H           -2.40610186772231        1.96137044934071        3.75553120837272
H           -3.17214548385359        2.78659840210085        2.37135485244206
H            1.65905324320061       -0.84771019551289        2.41059767845365
H            0.49956577451545        0.42412052218007        1.97736031507413
H           -0.08534417388555       -1.16452986987870        2.49367508620130
H            1.24333483403062       -2.99342632931098       -0.53315551769096
H            1.82169558441181       -2.88364664291079        1.12865970246682
H            0.10495106361649       -3.16887306955305        0.81154977725154
H            1.45580364877890        0.44756033726178       -0.72787988051735
H            7.25600692837858        2.49060128429053       -0.59698785095580
H            7.45619637901906        1.42114433634442       -1.98458915806543
H            6.84890878575912        3.07460227150218       -2.22655792016409
H           -0.05536668367444       -2.69641776440092       -2.54233684939275
H           -0.03012079900986       -1.14733528214240       -3.40239243125100
H            1.12726017966018       -1.44174312213059       -2.09715218522106
H           -4.89610716683006        0.46500344389621       -1.10718225842842
