42
 energy: -83.602116901911 gnorm: 0.000165369587 xtb: 6.5.1 (579679a)
C           -5.90138540724597       -0.79744414852242        1.36096327460766
O           -5.07035611050078       -0.01353149164029        0.51632057208798
C           -3.78146911106246       -0.43129154814393        0.38122070820610
O           -3.39071695156158       -1.44787912172280        0.93429432090653
C           -2.90217838959541        0.59391895797420       -0.35518593096875
C           -3.69278139083685        1.29707337812672       -1.47695722655974
N           -1.74648471800029       -0.07275791189657       -0.92537891739156
C           -0.60411525917188        0.03760482936895       -0.28793883176514
C            0.53399201870953       -0.77751024779921       -0.93245456585662
C            0.59720226881353       -0.47477461965801       -2.43626074566610
C            0.25920338613069       -2.27148453256871       -0.69831237586437
N            1.77973620227244       -0.38558249300780       -0.28481051004627
C            3.00628718530279       -0.83732937404598       -0.60649070682974
O            3.24446958860470       -1.69109339892762       -1.47331356186804
C            4.05386878652018       -0.19231296473670        0.19323030975857
N            3.87997503269837        0.71353234014002        1.13081864043080
N            5.12401183701714        1.04551246139791        1.59181835380962
C            5.97428618400486        0.33702232356380        0.92217400634526
C            7.45058563375365        0.34415881893535        1.05225002626539
O            5.37942729286100       -0.47049026172835        0.02136754902161
N           -0.27632602936106        0.71721430528111        0.79972515220371
C           -1.26528967174386        1.53848632521195        1.36037952666837
O           -0.99409784586124        2.31447871736984        2.33455254953055
C           -2.52617650015806        1.50700729440084        0.77040211187821
O           -3.52979532203961        2.36891470078373        1.26832261688445
H           -5.49641175768462       -0.84167161051373        2.37749781189749
H           -6.88208904682615       -0.32368410318683        1.37580386036038
H           -5.99329629942942       -1.81746224188681        0.97354721826022
H           -4.05007391912736        0.56424900167445       -2.20012622345070
H           -4.54303240476499        1.84024029411843       -1.06707840940052
H           -3.03574179201800        2.00069405648956       -1.98778762058522
H           -0.38927503569576       -0.64059119046213       -2.87020851505487
H            1.31911922188773       -1.11800551742597       -2.93806909738155
H            0.87983056978785        0.56599090190053       -2.59710317942147
H            0.99883350116347       -2.88955502926245       -1.20667760271450
H            0.28606411996452       -2.49479997582382        0.36894661637646
H           -0.73214638593000       -2.51159348319492       -1.08376398036331
H            1.66913637193369        0.30955417271033        0.45876155158033
H            7.91084095610099        0.61564281271538        0.10246948828797
H            7.74579423623484        1.06134731394811        1.81394540153309
H            7.81109845175652       -0.64626407432796        1.32920332498633
H           -3.10052549688607        2.86101433438735        1.98990400930515
