46
 energy: -87.045334975439 gnorm: 0.000399819829 xtb: 6.5.1 (579679a)
C           -1.12544281484688        4.20814477701934        0.07356881528558
O           -1.12008810735340        2.78555805715824        0.02477382137740
C           -2.32211013029697        2.19240736739586       -0.12045010374143
O           -3.35078858233433        2.86039174699933       -0.21930702380416
C           -2.27817417984861        0.73941266962164       -0.14172314450234
C           -3.41215229432834       -0.00403958316937       -0.26673922178504
O           -4.63178521498232        0.53907924913679       -0.38467393786043
C           -3.38736294734413       -1.55391132786064       -0.38372485699339
C           -3.15118453819676       -1.86327491200917       -1.90687388821060
O           -4.35678040261644       -2.18721585820876        0.15941493467792
N           -1.97226453572332       -1.94243763875785        0.29817687889173
C           -1.94823501675619       -3.33164546571675        0.71668126864876
C           -0.91475236428810       -1.12388422330728        0.23187084560482
C            0.53605785022519       -1.58271461837350        0.50871551813351
C            0.93716892026817       -2.86082122270947       -0.23784166126496
C            0.77728279928495       -1.70458653492857        2.02186162859364
N            1.37640450020623       -0.48679294913617        0.00848219712039
C            2.70392038381814       -0.39627524879028        0.11136717606007
O            3.46389325965200       -1.24991215368895        0.55089730589286
C            3.18376620365115        0.91767720616515       -0.41128083174315
N            2.44319730541292        1.87133231411368       -0.88820714688023
N            3.28473639043361        2.88663421085644       -1.23932809939532
C            4.48434695381862        2.48680414573386       -0.95212537886960
C            5.75095896617215        3.22764983138512       -1.14376909077583
O            4.48906956306445        1.25199475361597       -0.42679060801945
N           -1.01335032521447        0.15193950446524       -0.00741494627975
H           -0.09130660557956        4.52565651688004        0.19996714584123
H           -1.53293032167852        4.62366837907668       -0.85257599669467
H           -1.72860246408930        4.55958303853220        0.91568547622461
H           -4.56873770440124        1.52113714549829       -0.35132116025996
H           -2.25296897894128       -1.37664478606377       -2.28069104300313
H           -3.06529859545557       -2.93995101263585       -2.03681431963597
H           -4.01696867390870       -1.50777746194396       -2.46369684990713
H           -1.62151004951118       -3.99238291542815       -0.09157728982479
H           -1.30883390226474       -3.47660090606777        1.58526467626654
H           -2.97097086785005       -3.61040710060493        0.99312188050710
H            0.54672347632376       -3.74528020334450        0.25708390365234
H            0.57089405360926       -2.83079381603567       -1.26332443884835
H            2.02254710699945       -2.94635389790944       -0.25642822865422
H            1.81799952588537       -1.96233400228012        2.21254010756733
H            0.14783779776863       -2.47750802081662        2.45554556331876
H            0.55179190383254       -0.75462248995263        2.50573504034269
H            0.84094231488879        0.33188186154366       -0.29757419439542
H            6.28011024769110        3.31562622392599       -0.19551725825567
H            5.53745836046924        4.21879562605224       -1.53564815636095
H            6.39549373436162        2.69279372458377       -1.84084430805596
