43
 energy: -83.130278740927 gnorm: 0.000391388003 xtb: 6.5.1 (579679a)
C           -5.72942211151671        2.34497865542606        0.77512891344804
O           -4.66967319053388        1.37868252983616        0.64555276916805
C           -3.55433269793759        1.73881607439386        0.05766171065201
O           -3.29957501375288        2.81034435735183       -0.41633135678461
C           -2.55216630408339        0.58671174604508        0.04050839366138
N           -1.36207683375702        0.83222768362569        0.47644424909922
C           -0.39018463671660       -0.11118378858688        0.35040061626057
C            0.94641727102352        0.15938375919282        0.99444004285023
C            1.03435641605051        1.60468709631872        1.48178667874918
C            1.08662321555663       -0.82310853798771        2.17441273034673
N            2.04526920911790       -0.05149055684137        0.04356686461032
C            2.39672201556900       -1.21032596648109       -0.54107869553267
O            1.70603445818021       -2.23620904834209       -0.54552698688003
C            3.68406790304744       -1.14902440002069       -1.23885719098832
N            4.26613815231839       -2.07834867809967       -1.93415657690308
N            5.42849314989548       -1.55432277426621       -2.39210565694273
C            5.49320888203337       -0.33247281281009       -1.95217045673538
C            6.56321290557921        0.66037996561726       -2.17917193409355
O            4.41804258785846       -0.01545217218207       -1.21501630856637
N           -0.57953953193427       -1.22819768976709       -0.30016784054376
C           -1.80322700767283       -1.58141118084594       -0.92831980297621
O           -1.86970541053598       -2.49147741089739       -1.69428411947621
C           -2.97915219295401       -0.76576508314716       -0.41970683011732
C           -3.44376998635782       -1.52439130474495        0.86805489278458
O           -4.00593428502260       -0.67142403307901       -1.34501754846310
H           -5.63884080441006        2.83510901289527        1.74546225646699
H           -6.66347000891152        1.78898427026318        0.71927937087080
H           -5.66541047365416        3.08142676284835       -0.02744699098918
H            0.23811517618637        1.79855630324973        2.19794284701519
H            0.93180000630438        2.29246629880296        0.64429973726637
H            1.99482746928369        1.76735402902983        1.96630312929407
H            1.05043002042803       -1.85178438367698        1.82199670128980
H            0.27980324652231       -0.65844619808403        2.88589400037890
H            2.04091752499126       -0.64258004388071        2.66529253076221
H            2.70920757768136        0.70740881297182       -0.01223403916449
H            7.34007346472435        0.22953863132225       -2.80667512396925
H            6.98900303583808        0.96843406337403       -1.22431573806405
H            6.14812314762415        1.54567135294970       -2.66080865214551
H            0.30872571834383       -1.83837519051437       -0.44832883878437
H           -3.70805838931079       -2.54052303601523        0.58346392045426
H           -2.65271966688383       -1.54026295070076        1.61265042698444
H           -4.31866453660061       -1.01269958056468        1.26193207288665
H           -4.21369047161370       -1.53396358397216       -1.73075416717887
