46
 energy: -86.339551390011 gnorm: 0.000588925047 xtb: 6.5.1 (579679a)
C           -1.65781705420714        4.42997794700392       -0.55336086124214
O           -2.55122800073047        3.67708685160037       -1.40201751950523
C           -2.70059265114818        2.42230307424228       -1.25314801011213
C           -3.65358755471436        1.73894136871259       -2.14371072022941
O           -2.00651754603309        1.84080673958460       -0.33710843685135
C           -2.09986277343898        0.49376300373996        0.05237501217935
N           -0.90833841436705       -0.12045237899529        0.15070862931901
C           -0.82850299449436       -1.36195438855644        0.54797731907308
C            0.58122332888477       -1.95239106871007        0.57296749152511
C            0.78224383690059       -2.81229347699127       -0.68799669734239
C            0.91196052988389       -2.71735452250489        1.86336197309852
N            1.49375550430856       -0.80747340695196        0.49295325200918
C            2.83343637099880       -0.91368736316164        0.37381584088786
O            3.46997490185985       -1.95242801707191        0.36922393905663
C            3.45980681818702        0.42840797038450        0.26280254411925
N            2.84305223659812        1.57252173464124        0.27303056540584
N            3.80034764755214        2.53478275546959        0.15368809917535
C            4.94077918094382        1.91549370480210        0.07771999316989
C            6.28655893468728        2.51399133754939       -0.06365577381912
O            4.78988726986409        0.58492701346777        0.14080837869291
N           -1.95096417045433       -2.07230046859381        0.86256339366384
C           -1.96095407780237       -3.48163655978843        1.27418228731701
C           -3.21924013779220       -1.48916803962054        0.84215404292996
O           -4.22959535990996       -2.08958385520198        1.17003828178141
C           -3.26635011914704       -0.11288279962878        0.38796029895638
O           -4.47178971732824        0.47980398377609        0.33883550170657
H           -1.72298185684887        5.45962911838825       -0.89563456601524
H           -0.64649009566542        4.03943965372234       -0.66330241403400
H           -1.98487760560247        4.33496499451944        0.48179223564973
H           -3.79811767553358        2.32296395054898       -3.05022103455444
H           -4.61113819710617        1.66032242273255       -1.62146067460920
H           -3.31472173373852        0.72925093298194       -2.36708190833626
H            0.05225925153860       -3.61587365002191       -0.73288487851688
H            1.78102445910216       -3.24564139830257       -0.67550825610795
H            0.67191536897406       -2.18793281760584       -1.57292568905681
H            1.99396494063420       -2.78684407667718        1.96370542989408
H            0.51968745529614       -3.72920467013043        1.84044848129891
H            0.51108911736624       -2.19046620368632        2.72705911230716
H            1.07378301698774        0.11129756402691        0.42803514949204
H            6.94402973978970        2.14012521716067        0.72088556446228
H            6.71777393405769        2.23682649214772       -1.02589763505054
H            6.21370315614936        3.59674150602775        0.00179234637987
H           -1.74725490975899       -3.55193972940762        2.33929695070938
H           -1.23824195005733       -4.04853758834018        0.69883356156432
H           -2.95875474905601       -3.87365979297743        1.08165094204718
H           -5.14433965563417       -0.15066206430841        0.66284045751154
