43
 energy: -83.867319489226 gnorm: 0.000420289222 xtb: 6.5.1 (579679a)
C            6.15310771142055        1.47929076666695       -1.69535954923193
O            4.94977706603484        1.57397642090321       -0.92204056236473
C            4.15353234377332        0.49169207646295       -0.94281267993661
O            4.42768508251270       -0.50067011703384       -1.57585665184671
C            2.92270186935093        0.64133134470796       -0.12000278971428
N            2.10612942341274       -0.46033116995784       -0.18997887178121
C            0.99749372985153       -0.46826502016100        0.47376555723479
C            0.08701807941552       -1.67799808236969        0.50703342396766
C            0.47628788364049       -2.46153592376173        1.77818655615662
C            0.33834112280302       -2.56917378526042       -0.71800371027862
N           -1.28578496309674       -1.20990366393043        0.70258426291149
C           -2.08216276279063       -0.84821950928448       -0.58020056675859
C           -1.45738796078149        0.45486346076320       -1.16894232648892
O           -2.23267762535718       -1.82586621421204       -1.42048764963121
C           -3.45201459970992       -0.43148988487712        0.05357877564751
N           -4.11444742970166       -1.06602207143330        0.96876654522518
N           -5.33132098082651       -0.42513183213586        1.10511303225754
C           -5.32278180159657        0.54841861025247        0.25874935633210
C           -6.39552157582745        1.54312617942165        0.01240746255830
O           -4.17042258331617        0.60501578845748       -0.43956537146987
N            0.61945722771692        0.58067110239034        1.25507397829489
C            1.34122512288703        1.73534070156268        1.41452827064012
O            0.94446969632405        2.64449792000719        2.12982794351462
C            2.59445441615610        1.73132241291838        0.64817510062166
O            3.32576936237597        2.84926079231668        0.78835591087272
H            5.91144855810721        1.25113765412758       -2.73598514024509
H            6.79453022023327        0.69356630114428       -1.29025727595599
H            6.64791306624150        2.44441230108824       -1.62471552386044
H           -0.11757629461086       -3.37175610933960        1.84612857084017
H            0.29278464518664       -1.85442151437647        2.66340507769604
H            1.53145027615150       -2.73062273171780        1.74868279462407
H            0.20781362077179       -2.01269447288705       -1.64423347978203
H            1.36149411342746       -2.94484038089312       -0.67799771375659
H           -0.35443866182357       -3.40845375603582       -0.71379633290558
H           -1.81360060565514       -1.98258822078416        1.11113683410201
H           -2.08643368087064        0.79014830072776       -1.99211604636402
H           -1.39793110254235        1.23987436846071       -0.41718408778106
H           -0.46261953639667        0.24363025165892       -1.55624640438004
H           -7.26777003669663        1.29316218160385        0.61109052309811
H           -6.05155417360501        2.54253730929334        0.27880947356651
H           -6.66924572994775        1.55014821273815       -1.04209304378763
H           -0.27382626362388        0.49926372321880        1.73443442929577
H            4.15463473098259        2.82329927955716        0.28313989886222
