42
 energy: -82.973332211955 gnorm: 0.000238304540 xtb: 6.5.1 (579679a)
C           -6.47921516593083       -1.28242485063455       -2.16922310019219
O           -5.16404758615639       -0.73105425754310       -2.19244198923779
C           -4.44102856149314       -0.87151670950847       -1.07159503009339
O           -4.88372663921234       -1.42348673991158       -0.08364958459694
C           -3.07436650296493       -0.30823781730771       -1.17176719956285
N           -2.30172556226277       -0.50055252633779       -0.05064145193469
C           -1.07151196463839       -0.06374055200174       -0.08785628956229
C           -0.23268120660208       -0.29495896190685        1.16608804203553
C           -0.29044568341445       -1.76697508659080        1.57802103989931
C           -0.71667765206150        0.62656533287338        2.29094075625528
N            1.12975789108210        0.08267582302998        0.77504027349406
C            2.22061560558254        0.01937077141317        1.46887825796361
O            2.17394356118511       -0.43454639468401        2.69522009619345
C            3.33934934920063       -0.56593311986442        3.51962738621418
C            3.45133657779163        0.45534551136907        0.83916926077025
N            4.66448459540736        0.49258422791275        1.31628460838777
N            5.45740787836306        0.97133037167918        0.33512089324366
C            4.69078296943243        1.20351223622619       -0.69480358159633
C            5.08813406568745        1.73123601337486       -2.01437719441731
O            3.41444827236767        0.89687053521016       -0.43441919185878
N           -0.44982831193084        0.56868428031001       -1.08494253072001
C           -1.15073481734529        0.81937081552458       -2.22101680752627
O           -0.69282317976166        1.40780935537958       -3.21314663585588
C           -2.54051660868554        0.34389348827501       -2.25125170907579
O           -3.19410734260634        0.60201337904729       -3.40130998487646
H           -6.91644414829031       -1.09555002156846       -3.14844857922394
H           -6.43617082939518       -2.35791681425542       -1.97587359967015
H           -7.07973400793549       -0.80319714283297       -1.39119339249753
H            0.18180251270494       -2.38615776309724        0.81710758827046
H            0.20715778871393       -1.92961081192576        2.53090780375173
H           -1.33891103692101       -2.05162188236120        1.66702474451069
H           -0.15311576442259        0.45016606666398        3.20446985500503
H           -0.59853470706190        1.66764836764662        1.99434186786481
H           -1.77132243246566        0.42468599679921        2.47449520894010
H            1.12892302731093        0.46994764079312       -0.19196548819606
H            2.98605689595153       -0.98189508876912        4.46130861470916
H            4.05864685154730       -1.23825803948706        3.04925259071350
H            3.79921881497849        0.41041298653716        3.68033281561724
H            6.16399094445522        1.88497279129283       -2.03838950626448
H            4.79795233054056        1.02887015118226       -2.79604364121168
H            4.57816339126748        2.67604607524859       -2.20480336897693
H           -2.55450361200982        1.07558736279768       -3.97447184669111
