4
Coordinates from ORCA-job /lustre/hpc/kemi/ree/PhD/applications/universalRXNpredictor/src/uniRXNpred/ref_calcs/calc_gfn1xtb_alpbDMSO/methyl_cation/xtbopt E -39.584986731107
  C       0.000135     -0.000186      0.000967
  H       1.060008     -0.244345      0.007032
  H      -0.741906     -0.795303     -0.011804
  H      -0.318236      1.039834      0.003815
4
Coordinates from ORCA-job /lustre/hpc/kemi/ree/PhD/applications/universalRXNpredictor/src/uniRXNpred/ref_calcs/calc_gfn1xtb_alpbDMSO/methyl_cation/xtbopt E -39.584995035891
  C       0.000218      0.000087     -0.002490
  H       1.062123     -0.244855      0.008200
  H      -0.743588     -0.797430     -0.010679
  H      -0.318752      1.042198      0.004979
4
Coordinates from ORCA-job /lustre/hpc/kemi/ree/PhD/applications/universalRXNpredictor/src/uniRXNpred/ref_calcs/calc_gfn1xtb_alpbDMSO/methyl_cation/xtbopt E -39.584990351335
  C       0.000165      0.000243      0.003127
  H       1.063213     -0.245186      0.006334
  H      -0.744369     -0.798598     -0.012564
  H      -0.319008      1.043541      0.003113
4
Coordinates from ORCA-job /lustre/hpc/kemi/ree/PhD/applications/universalRXNpredictor/src/uniRXNpred/ref_calcs/calc_gfn1xtb_alpbDMSO/methyl_cation/xtbopt E -39.584999093750
  C       0.000134      0.000171      0.000151
  H       1.061987     -0.244975      0.007317
  H      -0.743381     -0.797475     -0.011557
  H      -0.318739      1.042279      0.004099
4
Coordinates from ORCA-job /lustre/hpc/kemi/ree/PhD/applications/universalRXNpredictor/src/uniRXNpred/ref_calcs/calc_gfn1xtb_alpbDMSO/methyl_cation/xtbopt E -39.584999120900
  C       0.000112      0.000227      0.000092
  H       1.061993     -0.245046      0.007337
  H      -0.743350     -0.797569     -0.011538
  H      -0.318753      1.042388      0.004119
