42
 energy: -83.019483104039 gnorm: 0.000337618734 xtb: 6.5.1 (579679a)
C           -5.11752543406807       -2.68612499574823        0.32468302886268
O           -3.96239594647218       -1.84482962176926        0.34533769852553
C           -4.03705347049416       -0.71849976980044       -0.37104311823751
O           -5.01686472832309       -0.41393194413872       -1.01120050006027
C           -2.78248353364047        0.08375515226991       -0.27116291847471
N           -1.79222085760428       -0.47849406737800        0.49019364376696
C           -0.67263368958701        0.14446405695424        0.64155714587450
C            0.40454407973425       -0.46725741555148        1.52375076604699
C            0.66618097528826        0.43425530793206        2.73752825723913
C           -0.05123727287892       -1.85144966547148        1.98858946790093
N            1.63804379664143       -0.66546799097088        0.74961410728113
C            2.49959265893086        0.29824681668165        0.37173503770715
O            2.33425349391994        1.50060712055765        0.51246669938267
C            3.69827474142880       -0.28492145069755       -0.27728131388049
N            3.91593540734103       -1.54783050206246       -0.49354109813038
N            5.12631687531668       -1.63736174467790       -1.10943325795266
C            5.57170568399482       -0.42228909065337       -1.22960542437385
C            6.85108166255605        0.01612912534106       -1.82862714390615
O            4.71334092786673        0.47511043105918       -0.72460614041280
N           -0.44628844018061        1.35313751164074        0.06456218785696
C           -1.34942258809681        2.01988774783169       -0.73278821911341
O           -1.05302392979745        3.09929501966196       -1.22664251249917
C           -2.62025955924854        1.30468992946404       -0.89041484922770
O           -3.62635558876225        1.80366918428985       -1.61907712453352
C           -3.55879150510281        3.06889588562276       -2.27616151988886
H           -5.33756931836397       -3.00048082774146       -0.69879494802508
H           -5.97990359618156       -2.15176893406123        0.73121988390458
H           -4.88461205351353       -3.55064821581625        0.94276098627686
H           -0.23942834999116        0.49396070257477        3.33934350437970
H            0.95087103863740        1.43811410275586        2.43100764998290
H            1.46591325455232        0.00821428909824        3.34051604581781
H           -0.24425035066381       -2.49375819344064        1.13064869814375
H           -0.96974201471345       -1.75921931889108        2.56567243007169
H            0.71724085134429       -2.30392870505310        2.61195138592756
H            1.91671779874921       -1.62212732904634        0.58656350482834
H            7.44078503524223        0.55700433973462       -1.08868216242993
H            7.40828595460118       -0.85023320250607       -2.17633643480010
H            6.66040532258593        0.68865748258218       -2.66498524529490
H            0.45565925013182        1.80733607389858        0.20028839861793
H           -2.76672777138874        3.08115696452046       -3.02849622766358
H           -3.39904112036873        3.87809172592479       -1.55994681531849
H           -4.52731868941969        3.19594301508599       -2.76192855418152
