46
 energy: -86.359306156138 gnorm: 0.000598884272 xtb: 6.5.1 (579679a)
C           -6.37529678667753       -2.64259941086655        0.96648611128688
O           -5.47964451370137       -1.52115500721294        0.89296021947769
C           -4.37612503480192       -1.70203832161746        0.15598186107765
O           -4.13599467279364       -2.73222683861146       -0.42514918441396
C           -3.48495494421220       -0.50844540690820        0.13236291549058
N           -2.36097274107275       -0.69546465925893       -0.62478739577081
C           -1.46224267893576        0.22402957670116       -0.74043470923268
C           -0.29584651855185       -0.10614876567732       -1.66316746968756
C           -0.36676213914038       -1.58530054450292       -2.06632668729078
C           -0.35166910453341        0.77849266186456       -2.91598208272698
N            0.96042912522899        0.09338464676443       -0.91302080512468
C            2.17414742163884        0.00111604372890       -1.47963409939488
O            2.43303062985043       -0.12823534822006       -2.65436895862810
C            3.25844861372624        0.10490561524843       -0.43952085159525
N            3.11743552910194        0.27208007700701        0.84156939599499
N            4.37216448887117        0.28916604068333        1.32897199243291
C            4.59628949670364        0.47406508125219        2.74841494867834
C            5.23706964399548        0.13635218676282        0.34614272254337
C            6.70652123157720        0.08135604960419        0.40444473646242
O            4.55709537457840        0.01710294925551       -0.77449162115755
N           -1.59218250371199        1.43707566060415       -0.11839104464846
C           -0.61856836292187        2.52856600632818       -0.18029344389365
C           -2.70830512464485        1.75399774538222        0.65642552015576
O           -2.80241445376917        2.85257628242846        1.18051709586105
C           -3.69899164577173        0.68315839653854        0.77410055104730
O           -4.75718186679404        0.99451734399323        1.52793053392526
H           -7.20924047163983       -2.33504653363284        1.59246004753010
H           -6.72387797211861       -2.90399687104833       -0.03503199027448
H           -5.85963451239106       -3.49732785847288        1.40933516141500
H           -1.28770761140137       -1.77138126958474       -2.61620004770694
H           -0.35176429821996       -2.21548106232295       -1.17914645965028
H            0.48500889197905       -1.83105038545726       -2.69743597775515
H            0.32910345155144        0.39894720534307       -3.67522387826912
H           -0.08151197048743        1.80667215623407       -2.69052461499882
H           -1.36598246776229        0.75850978548504       -3.31283088985048
H            0.90928276208433        0.07078903840166        0.09213663158561
H            4.94047171173170        1.49330894012852        2.92120025270781
H            3.65274035630510        0.30177323518440        3.25983805359976
H            5.35171879147981       -0.23470490552680        3.08061988562448
H            7.11279278406751        0.12857641754664       -0.60436845972969
H            7.02025387939076       -0.85241533469190        0.87608724979783
H            7.09016666805530        0.90525839058511        1.00566928813182
H           -0.44475220874036        2.88268900317528        0.83598307846471
H           -1.03619488386311        3.34337673261545       -0.77275420043648
H            0.31487635530903        2.19111604513180       -0.61061712746364
H           -5.39122671857051        0.26005820963121        1.60390774640663
