33
 energy: -58.570132881285 gnorm: 0.000725582463 xtb: 6.5.1 (579679a)
C           -3.57766850657680        2.44848428120636       -0.39451969686357
O           -2.33663593316937        1.79051054367576       -0.22144056298690
C           -2.42818088594595        0.42474832354262        0.04127042605329
O           -3.56014554070969       -0.10375774044326        0.11393960448172
C           -1.20545372708446       -0.23045660597528        0.21028018036934
N           -0.03164479361243        0.47161256674961        0.14329620372101
C            1.10107031105209       -0.09181841978597        0.34183868479107
C            2.40069007841900        0.68714003433966        0.28649095040229
C            2.96146864803928        0.88285236172697        1.70336573184375
C            2.14394840152147        2.04867989829796       -0.37087490270593
N            3.41484972878373       -0.01880863462208       -0.50445601102425
N            1.19616862460094       -1.45761607252001        0.69226430736181
C            0.13963336600582       -2.27953965848386        0.87136750233848
O            0.30017080872868       -3.42534790492599        1.28686129627524
C           -1.23708987036283       -1.73222611881411        0.45881283159074
C           -1.64383388246767       -2.50025062439089       -0.82286968531718
O           -2.15534066190256       -2.06233600819050        1.50095933425443
H           -4.14478916430449        2.01343526187014       -1.22644594685875
H           -3.36139243758611        3.49528016125559       -0.61392912335497
H           -4.19039275705831        2.38686938799212        0.51317206041483
H            2.25887706769774        1.45363542850009        2.31062684770506
H            3.90912866816729        1.41910657896925        1.65910013112722
H            3.13103263738850       -0.08247092765303        2.17941841065124
H            1.75347443901763        1.90817917248179       -1.37895787006282
H            3.07433116446695        2.61241162922569       -0.42851630995781
H            1.41411293195489        2.61518685278178        0.20803129750730
H            3.00817648597303       -0.36771337348014       -1.36227294661445
H            3.78231411309086       -0.80413472572548        0.01221977039816
H            2.10699668564370       -1.83876998854384        0.88502867192191
H           -1.65778681696518       -3.57119824866609       -0.62120076357277
H           -2.63691745221846       -2.18218823547407       -1.13594004627303
H           -0.93317441838126       -2.29164381809904       -1.62063842431019
H           -2.99599531220693       -1.61785637682103        1.27415404669455
