20
 energy: -37.575195002935 gnorm: 0.000497117752 xtb: 6.5.1 (579679a)
C            3.70336630635313       -0.20895721489312        1.12925886495799
O            2.31321473138096       -0.12183399073334        0.75358685543038
C            2.01675403786572       -0.25750960022609       -0.50421785686188
O            2.75013141913277       -0.44980790440697       -1.42765185632517
C            0.50027250950730       -0.13774977617572       -0.71023890288338
N           -0.11757190998314       -0.22906508930304       -1.93539496736594
N           -1.35406005451932       -0.08754997185552       -1.74073339603031
C           -1.62020385647194        0.10724509945983       -0.36283840703549
C           -2.48934132545057       -1.02831986004070        0.20110853430219
C           -2.24323546585373        1.49029862658329       -0.11255274815225
O           -0.32542688669309        0.05519991276718        0.22591767758277
H            4.07395559801815       -1.20967802081989        0.90334436988878
H            4.27582928908790        0.53440308466478        0.57283465200639
H            3.73534315208389       -0.01155592841958        2.19755485037739
H           -2.61191395900962       -0.87197710912232        1.27021456779311
H           -1.99500008884302       -1.97994873346268        0.01776123200827
H           -3.45610861238759       -1.00529768451767       -0.29610101000021
H           -2.38198769141388        1.61902568569451        0.95816350383812
H           -1.57307775619427        2.25631301517382       -0.49665928868878
H           -3.20093843660962        1.53676645963303       -0.62513267484189
