42
 energy: -83.593909107277 gnorm: 0.000547932629 xtb: 6.5.1 (579679a)
C            3.89827204565494        3.78947092585055       -0.64868133058999
O            3.75767028814375        2.38763062282304       -0.62052936611497
C            2.45893665390052        1.92848535222989       -0.35434150206090
O            1.56129443652762        2.78223892082337       -0.17190983078557
C            2.30514480204060        0.52857766990939       -0.31740612471627
C            3.37885434952876       -0.47040252861674       -0.51500641420670
O            4.58447619031994       -0.16251596314347       -0.77965985838799
C            2.95740491353202       -1.79608401736998       -0.38245809586812
O            3.77377564306021       -2.92433262539147       -0.47623065291646
C            4.49273583641463       -3.07219933960168       -1.69322103746949
N            1.61240419698022       -2.12748776411820       -0.12575362742703
C            0.68702171498352       -1.13056068388626        0.04965700651530
C           -0.74554556239084       -1.56063723447125        0.33913140972860
C           -1.27943226352183       -2.39389227052299       -0.84194866316206
C           -0.79473905841974       -2.38433699807268        1.63693194035712
N           -1.52387695827503       -0.34262311902569        0.50453215204601
C           -2.90163232153330       -0.33758201210352        0.60543429789363
O           -3.57353489079199       -1.35614415214016        0.87905649596605
C           -3.44915005302320        0.97587383159734        0.41399365270260
N           -2.76972515804202        2.08163817877386        0.11040094132643
N           -3.69108695663963        3.08617682925776       -0.00065926803974
C           -4.85300183814749        2.57009861584313        0.23044121474723
C           -6.16101018136142        3.27101557678536        0.22120080092330
O           -4.80038097557693        1.24431560134593        0.50242019175712
N            0.99153690599417        0.11213441072207       -0.04296429120553
H            4.94450009065434        4.00991116831720       -0.86922428554490
H            3.63410180338022        4.24223545540841        0.31671635950262
H            3.26657580079658        4.24415368469902       -1.42377352000338
H            5.00533100198362       -4.03500926434090       -1.64517613521464
H            5.23617649365238       -2.27336942824426       -1.81644872747423
H            3.81846338849764       -3.06936138149872       -2.55949471032074
H            1.38408566494473       -3.09791654604442       -0.01969224205120
H           -0.64477996466855       -3.26406519365297       -0.99850198815648
H           -2.29280477472966       -2.73635473195644       -0.63807629185900
H           -1.28346943385266       -1.79430399702087       -1.75199792855984
H           -0.41959525559801       -1.78980220329737        2.47026441607481
H           -0.18254993107752       -3.27887861275885        1.53811208638406
H           -1.81871266670980       -2.68702812904351        1.85101752507559
H           -1.08652626884473        0.49293261030054        0.11327209561097
H           -6.82561781052125        2.82752353971414       -0.52064240649712
H           -6.64371967651786        3.18947036722519        1.19516993371626
H           -6.00786922073393        4.32100783469380       -0.01659022166897
