33
 energy: -58.551530025038 gnorm: 0.000811903496 xtb: 6.5.1 (579679a)
C            2.99722837708775        0.56263885550604        2.04340239697642
O            1.97917152316311        0.38864673741991        1.06251972193261
C            2.40391939293057        0.16859439312200       -0.19992162126160
O            3.59088022258407        0.14979487710446       -0.47889791087864
C            1.27734113424511       -0.20189063315470       -1.17086877144365
C            1.71656869696319        0.12369485348442       -2.60432058673955
N            0.06023632804807        0.54405824762490       -0.86168973140387
C           -0.79364214790264        0.03123173223531       -0.05758483237204
C           -2.03896605782143        0.83459607062620        0.29599487173449
C           -2.23067000149050        0.90037893120338        1.81629558282082
C           -3.26323940299538        0.18266890874349       -0.37292216922223
N           -1.86143751284540        2.20059994894364       -0.19063648955961
N           -0.67262674764432       -1.19637891484379        0.52220985587212
C            0.17912139981070       -2.20246322658152       -0.09669078092639
O           -0.06061032502011       -3.41278931497357        0.17904157516254
C            1.11235152891862       -1.68066222002081       -0.93616636360786
O            2.00628806508767       -2.52839622331077       -1.64219190285003
H            3.62383043020223        1.42547377772427        1.79730324620952
H            2.49844511968861        0.72942528402401        2.99680678272037
H            3.63046058938074       -0.32769347913324        2.10486096290223
H            0.95777555559603       -0.21926837155298       -3.30595086933241
H            2.66011542245270       -0.37280768626279       -2.82896487945654
H            1.84352988542813        1.19974438285807       -2.71957046041661
H           -1.35366498693257        1.35171982848573        2.28095772853243
H           -2.38507415917378       -0.09186701089404        2.23668750604204
H           -3.10142341431490        1.51161453036312        2.04974222862493
H           -3.13424712134383        0.17138576902692       -1.45476505206923
H           -4.16217321648036        0.74918530589959       -0.13503063806364
H           -3.39188088638561       -0.84058019542642       -0.02173554067501
H           -1.64343154700650        2.16993876521783       -1.18213546680354
H           -2.73295517221990        2.69975483592337       -0.08479530536574
H           -1.47918519049010       -1.58661650511004        0.98266354659865
H            1.76796621847978       -3.43373425426999       -1.40008463367955
