47
 energy: -79.484139691766 gnorm: 0.000718731374 xtb: 6.5.1 (579679a)
C           -4.37034612477403       -0.98064759835682        1.90813108683861
N           -3.08026748394727       -0.76902750127343        1.24298728774933
C           -2.92826747066771       -0.02301559251012        0.10081669086172
C           -4.10094430459525        0.65081445293707       -0.59972941130941
C           -4.80037873397085       -0.38430389323708       -1.49405651165654
C           -3.56844585558235        1.80167699033598       -1.47176689971338
N           -5.05066455481311        1.17534626406915        0.37241116859687
N           -1.77631947137180        0.11344844359241       -0.47839412724111
C           -0.64192836356192       -0.45239232285688        0.02729071369424
C            0.58052181250529       -0.16594435547341       -0.76882220110988
O            0.60335876554342        0.62124454334477       -1.69588797801647
N            1.70595745450074       -0.87216809182548       -0.40488518950423
C            2.94023570913865       -0.63376942880400       -1.04406514764153
C            3.84034715509355        0.45365943123736       -0.21641936443356
C            2.98132044127252        1.72568233909919       -0.07897583629902
C            4.12675765755205       -0.18274758256841        1.07437129989575
C            5.35983979732929       -0.67208771114233        1.39201060231357
C            6.40626923177575       -0.49452925591752        0.47878277617647
F            7.58869093875709       -0.96280964902518        0.78582770948121
C            6.25146333667910        0.18088388363152       -0.73792831671592
C            5.02027317850404        0.67275930024645       -1.06136068695790
C           -0.71467321779844       -1.16095031813167        1.19246460992644
O            0.33965978147988       -1.72450372800290        1.81020738145581
C           -1.99074661532098       -1.34577745751185        1.86396591616455
O           -2.07184721768261       -1.98774266097212        2.90724076488104
H           -4.27446893901589       -1.84772693298261        2.56110045332829
H           -4.62471209930652       -0.10178386757576        2.49806497905287
H           -5.14619715648226       -1.15737708873989        1.17031762215807
H           -5.59928977318954        0.09932225810622       -2.05426019792805
H           -4.08399204703714       -0.80986815640440       -2.19581360746930
H           -5.22976029889075       -1.18863177484648       -0.89942950492105
H           -2.90632659204564        1.41776350376544       -2.24656993138485
H           -4.40578248819631        2.31659592098191       -1.93921568017712
H           -3.01479642541408        2.50956844165408       -0.85698399560793
H           -4.65186442291505        1.97798152161612        0.84112595825439
H           -5.88967890134871        1.47576418968732       -0.10410411210111
H            1.68636547414981       -1.50237708792661        0.38143370693379
H            2.76847143352089       -0.19865732831052       -2.03013205419902
H            3.52461610391398       -1.54871185368015       -1.10803870499255
H            2.11026729919625        1.51295953347086        0.53695431284342
H            3.57462580515352        2.50287568624512        0.39822261339933
H            2.65603405617365        2.06653461117512       -1.06019225261589
H            3.29853060678481       -0.29671466956953        1.76417209926658
H            5.55057360884888       -1.17361976609195        2.33266461032947
H            7.11013942964879        0.31963224209888       -1.38334180108250
H            4.87736784322953        1.21679520026997       -1.98794050993725
H            0.02001163717873       -2.17342508382781        2.61973565940941
