33
 energy: -57.857949835108 gnorm: 0.000514338020 xtb: 6.5.1 (579679a)
C            4.17049269641516        1.79526967523132       -0.36597831674753
O            2.94506787697723        1.07975012873111       -0.12048274138817
C            2.74359711939764       -0.03571427830426       -0.79944313787628
O            3.49232406082199       -0.50032543869836       -1.61315027489713
C            1.44766916570186       -0.70949924676162       -0.38407212746077
C            1.45054300691924       -2.01927328452603       -0.01511550092686
O            2.55070873288287       -2.76245310481911       -0.03089223891991
C            0.22240268276553       -2.65270630271643        0.45826592900630
O            0.12214821645490       -3.81594419945501        0.76870485264412
N           -0.84490623586763       -1.76624028382354        0.54793069128851
C           -0.84562888051630       -0.47356573904213        0.18601405000099
C           -2.13942455077301        0.30114795508984        0.39447955867426
C           -2.96864147331364        0.22674364833088       -0.89812262922610
C           -2.95330208901064       -0.29148533800291        1.55829557793847
N           -1.81513181211589        1.68580944520420        0.69833453204571
N            0.26475787044231        0.02892150192819       -0.33408982795602
C            0.30752715745367        1.37165148307017       -0.93407971516756
H            4.02859985973351        2.79162213632166        0.04680265348382
H            4.99414851122904        1.28588062493186        0.13808308482947
H            4.36334319418787        1.84434324612634       -1.43929589798635
H            2.36294950602003       -3.66409373220131        0.28506632103432
H           -1.69227308885170       -2.17402995290012        0.92132182056671
H           -3.16756020891657       -0.81300240596312       -1.15232192211403
H           -2.44974726474763        0.70171721967523       -1.72847786417822
H           -3.91532316102568        0.73922637277813       -0.73633249339714
H           -3.40617254852524       -1.24450563728743        1.28939802873390
H           -3.75419016590995        0.40548597346859        1.79840416834155
H           -2.32755279692203       -0.41889662084343        2.43938504991495
H           -2.65231053023883        2.24543229843358        0.61126983969366
H           -1.49204600094292        1.75541421052561        1.65429374586018
H           -0.67276234069500        1.63011235331461       -1.31483561091438
H            1.02393939753391        1.36014816385032       -1.75203967060968
H            0.60675209343660        2.09305912833302       -0.17732093429215
