43
 energy: -83.153662543844 gnorm: 0.000733145179 xtb: 6.5.1 (579679a)
C            5.61417637588438       -0.50533273773946        2.77633939774142
O            4.80365537825179       -0.77663030168541        1.61981288395976
C            3.64914909693554       -0.10942118420698        1.54178125236055
O            3.27802727659596        0.67909726802157        2.37707410649972
C            2.85617472138264       -0.44613833990472        0.32526828985903
N            1.73563188703898        0.33911637378486        0.20069750420849
C            0.90674678770622        0.13672426642321       -0.76313986713174
C           -0.30546422057647        1.03882223697326       -0.85412967358123
C           -1.17711179124914        0.79903289848794       -2.08190501953785
C            0.14453245283386        2.49804650994319       -0.79324210566512
N           -1.21099542589600        0.77165220344198        0.35392932857318
C           -0.66061228252552        1.13897203942442        1.69124360493288
C           -1.60001425667445       -0.68930723572463        0.40083830243547
O           -0.76982291617998       -1.50603235374828        0.64770814733804
C           -2.99918950355224       -0.88509935517234        0.13090888632252
N           -3.67877690184890       -2.00309082467070        0.13374799854570
N           -4.93774101123548       -1.69696153039934       -0.19326927785158
C           -4.98649567805063       -0.40234336365666       -0.38849989900081
C           -6.15209985256608        0.41150826906569       -0.77212313674335
O           -3.79137214412384        0.16228318868050       -0.19694023631208
N            1.11537931526812       -0.82503469694427       -1.70181711799635
C            2.21385489527730       -1.67283244923013       -1.70663962354623
O            2.34702950778813       -2.51085531701716       -2.57519125703497
C            3.13347519659264       -1.43487121724409       -0.58349277278227
O            4.18823866117263       -2.24763437508554       -0.55492782103484
H            5.80917014854384        0.56654818578355        2.84613425806165
H            5.09537212616797       -0.84312623213448        3.67565714375689
H            6.54230527882620       -1.05520513364244        2.64098016254327
H           -0.61080764329981        1.02682310808490       -2.98341699750324
H           -1.52934294380229       -0.23006523716654       -2.12764486693858
H           -2.04387797571047        1.45673931830772       -2.04470991641338
H            0.64324128727191        2.74500124214867       -1.72959733316844
H           -0.71430382913624        3.15385227670306       -0.66935946789928
H            0.84721934892778        2.64903912343817        0.02434891024028
H           -2.05695505919613        1.32439793551490        0.20772910334900
H           -1.36584574806120        0.78508523433168        2.43865303640722
H            0.31244939542801        0.66772212275441        1.81649491851830
H           -0.57912528786255        2.21985595923514        1.73667708179050
H           -7.02686535479029       -0.22312831873911       -0.89174755916850
H           -6.34072600851040        1.16468129429838       -0.00719047058777
H           -5.94211729338755        0.93471416959605       -1.70479836110114
H            0.46036809919310       -0.95720094861605       -2.45581331129240
H            4.78346689115038       -2.06400907176520        0.19357077482460
