43
 energy: -83.887506005834 gnorm: 0.000777658821 xtb: 6.5.1 (579679a)
C           -5.94038392038839       -1.66993977707076       -0.97873916132638
O           -4.70651460854650       -0.99677675915465       -0.72042307050301
C           -4.66074733424668       -0.24483270280775        0.37680388460823
O           -5.61376142929969       -0.12107530264481        1.13228007111021
C           -3.36308723450394        0.42129704871276        0.59512934324366
N           -2.38039492455978        0.20226112186129       -0.33756469276857
C           -1.22876195309844        0.76204684363102       -0.17014511306114
C           -0.13229120417845        0.60128991148683       -1.20330930381760
C           -0.21575069505643        1.82959433860402       -2.12653893615169
C           -0.34932785025468       -0.69409627855919       -1.99711172229785
N            1.13324898763864        0.58674469008338       -0.47528614397760
C            2.34426564135099        0.37958753332445       -1.18485548477467
O            2.44944856568252        0.63090822652601       -2.40003817814678
C            3.39387097568394       -0.08011096394451       -0.36264547098847
N            4.64730325113451       -0.32809854476140       -0.72498887919285
N            5.34471921661105       -0.76336591857853        0.27486900786922
C            4.46323379895416       -0.81590386749587        1.45100278605816
C            4.99872545476822        0.12384016663690        2.54251807649669
C            4.36995225690858       -2.26009663276317        1.96599512204773
O            3.19146083760184       -0.36785305625695        0.99794805141929
N           -0.96260205828217        1.57123777942803        0.89416387054681
C           -1.86411529807884        1.87314713463975        1.89580342237929
O           -1.55597230138634        2.61052092829322        2.82088899967312
C           -3.15962348589882        1.22549711505035        1.69575833416253
O           -4.09270466991424        1.46835371199766        2.62569980045900
H           -6.17624679837091       -2.34994123137642       -0.15683526387592
H           -6.74922265561134       -0.94391159570807       -1.08830614107740
H           -5.80462413583344       -2.22718126966660       -1.90330758363636
H           -1.21974602560712        1.90258471325745       -2.54286658109714
H            0.50006622765278        1.74196554582405       -2.94176523816051
H           -0.00112474233730        2.73404384416932       -1.55877938034175
H           -1.33638206207069       -0.67895584959309       -2.45696059153764
H           -0.28674057552687       -1.55435158787001       -1.33191824053706
H            0.40719818557403       -0.78512697710309       -2.77490502047571
H            1.09096043423180        0.01438242874258        0.36015120097504
H            5.99724284672432       -0.19102110375286        2.83916146099787
H            4.34133564420553        0.10513753632791        3.40981617997415
H            5.04539369963595        1.13956753353288        2.15298017687882
H            5.36034244506896       -2.61195143732928        2.24836141317469
H            3.97516373661662       -2.90023519221965        1.17876658556691
H            3.70952949011649       -2.30981167297442        2.82974704667852
H           -0.03809671748860        1.97750248814730        0.97251626919495
H           -4.92523801560135        0.99312808133880        2.40398309425094
