43
 energy: -83.120126287759 gnorm: 0.000276858291 xtb: 6.5.1 (579679a)
C            6.69623404174330        0.96872925405604       -1.58153197518451
O            5.46280534543789        1.21249796144819       -0.89407252308542
C            4.57651040287915        0.22573061602453       -0.89473579294360
O            4.75860711707945       -0.84094956656129       -1.43235156639135
C            3.31747151434885        0.56103544004927       -0.15399356588053
N            2.42160454267285       -0.47257321568789       -0.10783049487382
C            1.28899200268584       -0.33072927696373        0.49394155280120
C            0.34445939922267       -1.50676538279196        0.58465930309027
C            0.68350797527161       -2.54893508791523       -0.48556576145387
C            0.45448550842594       -2.09608046561756        2.00011589635863
N           -1.02277390828676       -1.00863085001008        0.35797139847681
C           -2.10583327945655       -1.79477181969093        0.46283379697774
O           -2.14586377549163       -2.96184747891807        0.78100862456137
C           -3.37404573832508       -1.05211369258141        0.12251897248747
N           -4.62217145430382       -1.61213222967474        0.15677726910211
N           -5.45027870491928       -0.72726443688594       -0.19820587093922
C           -4.77658481289543        0.48958596138900       -0.49627772406176
C           -5.21985641208225        1.60966325648488        0.45268293532172
C           -4.96131543280827        0.86649063525179       -1.97162502481561
O           -3.40393503019109        0.16882473738829       -0.25166756787623
N            0.93752380591088        0.82678557382639        1.12464155264114
C            1.74890215758007        1.94104616848713        1.14270220386381
O            1.43373544587516        2.97693669729182        1.69960261866297
C            3.02282959421274        1.76330951861191        0.44133244980512
O            3.82833572045583        2.81990826548191        0.43924600678611
H            7.29095320493872        1.87424463947004       -1.48060131964415
H            6.50024949684195        0.75582342001529       -2.63483305894823
H            7.21375024760272        0.11932752450485       -1.12953162976109
H            1.71529160442004       -2.87173359683121       -0.35322649802791
H            0.02103638398704       -3.40693424125541       -0.39357953437173
H            0.57212572308325       -2.11022163384955       -1.47535042226856
H           -0.15887386389131       -2.99037221541441        2.08729661078834
H            0.12511157387357       -1.36138210675801        2.73166179048939
H            1.49374596437416       -2.35610879868648        2.19600216500358
H           -1.14448325688117       -0.06713596707836        0.02573688682533
H           -6.27362608281317        1.81723189430838        0.28244318387991
H           -5.06387685983336        1.29168534882968        1.48101335076313
H           -4.62646475339668        2.49673794974195        0.24589183446193
H           -4.61208241806248        0.04838064408401       -2.59783201186863
H           -6.01674117690087        1.05243748484039       -2.15577450294996
H           -4.38219915684025        1.76299114116825       -2.17771508702986
H            0.05377860395365        0.90814290048311        1.59992381017455
H            3.39895674050280        3.55913502994899        0.90884571904819
