43
 energy: -83.136643977261 gnorm: 0.000434846722 xtb: 6.5.1 (579679a)
C            5.74662391378514       -1.06605984438645       -1.73118722518752
O            4.65521040711258       -0.37639900924961       -1.07532654897464
C            3.56717034740673       -1.11118913031154       -0.80563954111910
O            3.46492905218082       -2.27538720237362       -1.06118888577294
C            2.48458255717933       -0.28944036014738       -0.15116695037173
N            1.37822679319606       -0.99537806911423        0.17541881768153
C            0.37744343658943       -0.38306878909506        0.74823666585542
C           -0.84576706645133       -1.19216110737309        1.14430717682620
C           -0.74616545473138       -2.59889715715822        0.55279789602384
C           -0.93388657413371       -1.26361646808190        2.67656905164978
N           -2.05770712718993       -0.57808975404857        0.58903070964907
C           -2.62254408458206        0.57425114643376        0.99862077852690
O           -2.13578331214005        1.34952899691227        1.81498630145681
C           -3.91257140309809        0.84858029730692        0.33484991385716
N           -4.70309511136537        1.86113986939183        0.51241546824795
N           -5.76648634044075        1.67889438949034       -0.31534896629086
C           -5.56240077793608        0.56560996863678       -0.95027263499599
C           -6.42447972130266       -0.07630794982047       -1.96522295417073
O           -4.40592938290094       -0.01017733595122       -0.58347768356576
N            0.41346530846362        0.92813411305737        1.04331770625042
C            1.47245701843333        1.77241907510499        0.75162218846334
O            1.44476399901867        2.95808035458670        1.00855658883721
C            2.55575256285059        1.04853857983736        0.11458011434984
O            3.72454737381387        1.80686527173208       -0.17786247223972
C            3.58886803355792        2.93819963224459       -1.10484004886270
H            6.12050519872794       -1.85239264840980       -1.07411179392713
H            6.51043364072977       -0.31626219809087       -1.91614593612627
H            5.38648779553368       -1.49529242175113       -2.66702846168047
H           -1.63046659953972       -3.17333957467710        0.82125359752500
H            0.13729883952999       -3.10033145747449        0.94415804642070
H           -0.66521330755083       -2.54666765553607       -0.53142828742556
H           -0.96974826107725       -0.26851985539568        3.11447854311091
H           -0.06174616949997       -1.78881114091368        3.06238670052639
H           -1.83318653062524       -1.80940016082002        2.95651499011278
H           -2.55259687263452       -1.12260497454905       -0.10058412179103
H           -6.76654913669469       -1.04509467654888       -1.60020460904808
H           -5.85453511744054       -0.24517136886155       -2.87855531906673
H           -7.28179052796018        0.55896979538401       -2.17674484985685
H           -0.41958665654812        1.34857046792411        1.48727343100905
H            4.42154731194286        1.16201844466243       -0.51590477239225
H            2.90051271879382        3.64380611105669       -0.64473565567287
H            3.21620746557956        2.57479810261719       -2.06068667779691
H            4.58520476141983        3.36165869375810       -1.19707029004869
