42
 energy: -82.914105840551 gnorm: 0.000609344032 xtb: 6.5.1 (579679a)
C            7.06967530729322       -1.52858441091020       -0.37953884143167
O            5.92299114123369       -1.23353471413107        0.40760826181095
C            4.87080127228412       -0.70136503291725       -0.25976931301470
O            4.93278967939491       -0.49950308353012       -1.46644347699363
C            3.71084311628345       -0.40263802219355        0.56984989063033
N            2.67267626161982        0.15671781713934       -0.15195296446682
C            1.58087469666059        0.48807629530180        0.42419488693958
C            0.44314784923236        1.10206561520182       -0.36085992781364
C            0.23655654246658        2.56306900089380        0.05747531619934
C            0.71861371163469        0.98352977768990       -1.86090912376434
N           -0.77180012778696        0.32322751797300       -0.02364433785229
C           -1.98182983230378        0.58955624839267       -0.50950995660755
O           -2.29772183446599        1.48053390755479       -1.27761562083834
C           -2.99508718371876       -0.38416995372171        0.01132433659598
N           -2.83214651356685       -1.38645268081629        0.78871376877052
N           -4.04135612200343       -1.99573553936653        0.98372721398098
C           -4.93588563058379       -1.36493974577210        0.32559870696584
C           -6.37793098256164       -1.63230438490385        0.21471135826111
O           -4.34011152353347       -0.28938083122163       -0.34642816067193
C           -4.94238697174902        0.71813845539121       -1.22080325334674
N            1.38518599753170        0.31427859155092        1.78247598000568
C            2.32156186513697       -0.24694976852315        2.61786738381769
O            2.06853831595708       -0.37793767652164        3.81111727322755
C            3.62299067026754       -0.66032624338390        1.96370699604571
O            4.50079605846905       -1.18041184222014        2.67360225444884
H            7.82339768452351       -1.93581940406902        0.29350664125206
H            7.45163092713950       -0.62252404187505       -0.86016303670186
H            6.82763677827012       -2.26330845182346       -1.15365178888226
H           -0.56126578825783        3.01738388432903       -0.52560375915141
H           -0.02343892304895        2.61746946339685        1.11294604271149
H            1.15871386403387        3.11783123662406       -0.11186757358180
H           -0.08450470546763        1.44257644714487       -2.43207524332940
H            1.65742851615965        1.48696055536536       -2.08945473529689
H            0.80513691369072       -0.06574382595465       -2.13979841611727
H           -0.67391019505707       -0.46398809956782        0.60090991958001
H           -6.61487643294342       -2.51321644467021        0.80878092373730
H           -6.65381188227584       -1.80938063701952       -0.82502360121009
H           -6.95307349559550       -0.78148570261189        0.58087843108604
H           -4.46646617833425        0.62953897913390       -2.19526086128337
H           -4.75247637773800        1.69146136381548       -0.77332626469810
H           -6.00341799154736        0.49552810653597       -1.26783089665857
H            0.52151252325512        0.60830427429057        2.20253556763826
