42
 energy: -82.973289443729 gnorm: 0.000572577289 xtb: 6.5.1 (579679a)
C           -3.56391906327834       -1.33147165610822        1.91967204080797
O           -3.32361538454700       -1.94353632206064        0.65162360399366
C           -3.61019707406123       -1.24815283270038       -0.48075561333956
C           -4.08723927619710       -2.16566150343550       -1.57992495041570
O           -4.15603212585746        0.00741114411755       -0.36566913061501
C           -2.80412841861408        0.03492362319375       -0.80188986348363
N           -1.87499586972085        0.42579431366175        0.18354659061397
C           -0.71513423700264        0.82591725125230       -0.15320759402339
C            0.27691609136337        1.28269946028256        0.89599969362840
C            0.23780116555902        2.81924015362735        0.91687392540740
C           -0.07034840242079        0.70075479947004        2.26795394833261
N            1.60307482704422        0.81264108809391        0.48061470270082
C            2.73626240666538        1.13556072676172        1.14817211804961
O            2.81353898975142        1.92230553453511        2.07474384025117
C            3.92902136691610        0.43838544431583        0.60778296001547
N            5.15846199053161        0.55198658483390        1.00363985196890
N            5.90384655387851       -0.27088389636793        0.21480780659134
C            5.08382751233501       -0.83746082836549       -0.61486386164420
C            5.40169690366209       -1.81829007031730       -1.67493508778525
O            3.81791853191993       -0.43242578991245       -0.41958130340319
N           -0.31338491178993        0.96678676025168       -1.47010860617114
C           -1.12891186371473        0.79799193175822       -2.55492091810429
O           -0.73908887236667        0.97917811283515       -3.68663959622193
C           -2.56562234478790        0.40541100077258       -2.21399061382181
O           -3.41451395279494        0.36273101396864       -3.07780595415758
H           -2.84952419303184       -0.52528443433013        2.10182016726840
H           -4.58154759270096       -0.93363972167370        1.96590638642479
H           -3.43353817030763       -2.11705751003714        2.66289315560083
H           -3.31976810538078       -2.90600624481782       -1.79434312866008
H           -4.97845271978836       -2.67983049658068       -1.22292691585663
H           -4.33364395128512       -1.60842673245138       -2.47888084857095
H           -0.78284788728787        3.14779800364275        1.10778113929676
H            0.56555421315645        3.21306325607770       -0.04337937472828
H            0.88623001876287        3.20369494286008        1.70123560434064
H            0.63997062623754        1.05814772008147        3.01133286470244
H           -1.07280207697726        1.01469107603731        2.55340549209466
H           -0.03367418275954       -0.38648567275434        2.23024402356175
H            1.64374778820723        0.03157673572611       -0.15276798138723
H            4.88962057041718       -2.75959225655700       -1.47511620635924
H            5.05757217357427       -1.44726644263829       -2.63996447058656
H            6.47558998201299       -1.98680438104667       -1.70818010008902
H            0.63227896466517        1.25958411403655       -1.66533079622234
