43
 energy: -83.891148894622 gnorm: 0.000564186066 xtb: 6.5.1 (579679a)
C           -6.14247310053456       -0.92573331825157       -0.97484698404349
O           -4.98612238860048       -0.11223137284681       -0.86673519020430
C           -3.91959175983572       -0.69717595421024       -0.16823705255390
O           -4.07027699515352       -1.82873420736710        0.31213751785081
C           -2.77258338972167        0.11546649763819       -0.10217081261112
N           -1.71113959139065       -0.40656515055774        0.58028695539003
C           -0.61624040638827        0.23543932271215        0.74452289041167
C            0.54334305238132       -0.35365732942886        1.51506299155277
C            0.32854484270095       -1.85996016830974        1.69683354589991
C            0.68751212624376        0.34784064177019        2.87521344028178
N            1.76517351945159       -0.12430088406925        0.72024176787545
C            2.99579460281477       -0.51298765778595        1.09075968262928
O            3.29224092024995       -1.07457580686953        2.13313608498495
C            3.99498361991685       -0.16207049292711        0.04174953302875
N            3.74144104852774        0.44034600360870       -1.08076385414711
N            4.92904062217769        0.56071311351431       -1.74027228943631
C            5.83020426985721        0.02218638976463       -0.97766096895680
C            7.27886580649851       -0.10988002244942       -1.24804734801346
O            5.30362959151316       -0.45245626386329        0.16167354724036
N           -0.45246915375577        1.55552509296502        0.26324841253264
C           -1.40406741391788        2.23820871722972       -0.40898060298922
O           -1.20985496034739        3.40193011689215       -0.75205119894317
C           -2.70089046645209        1.48404906939729       -0.76470317612908
C           -2.72745190821284        1.37547271561806       -2.30769340149193
O           -3.76580397306702        2.33958728519351       -0.33787235716128
H           -5.91582447761489       -1.86292085045177       -1.49680893866234
H           -6.55027268943555       -1.16466740129821        0.01436795642863
H           -6.88169516930209       -0.36383801540954       -1.54577884250289
H           -0.63022500454468       -2.02869365657345        2.18606993776810
H            0.31655167812095       -2.35219849941329        0.72497492759168
H            1.12204076569466       -2.28873413929989        2.30560506348323
H            0.89071622459173        1.40744492033634        2.72921838683823
H           -0.24048453586620        0.23934712655711        3.43513847109647
H            1.50064406956538       -0.09091840499084        3.45057030975600
H            1.66644245860183        0.30288989086748       -0.18947038720326
H            7.53225673925022        0.43583781911945       -2.15300608713435
H            7.85318410952819        0.28026391720687       -0.40928062314443
H            7.53894140725140       -1.16063019067675       -1.37561933696918
H            0.39244038626397        2.05572599301558        0.48356102752627
H           -2.63986383447128        2.36958523318985       -2.74562798288780
H           -3.66232253119772        0.92526753702077       -2.63366819418727
H           -1.89815993141000        0.75688523842919       -2.64717737103345
H           -4.60617917998335        1.90056614500384       -0.53790044975769
