20
 energy: -37.628686722540 gnorm: 0.000787543830 xtb: 6.5.1 (579679a)
C           -3.53144321670514        0.93126739238151        0.12898636506748
O           -2.83414081804651       -0.33267295297079        0.06264956417228
C           -1.57453059347636       -0.40523014024330       -0.05900687147939
C           -0.95083886096689       -1.73621509683951       -0.10347142917818
O           -0.91947976607989        0.71864771695828       -0.13231612826122
C            0.41642948443526        0.89721151359028       -0.24086068789262
N            0.98826157113317        2.04756811353293       -0.30296147571385
N            2.32190067308277        1.78374847610279       -0.39743555846743
C            2.46720785796606        0.49757563148893       -0.38591847292313
C            3.71568781693466       -0.28499376051961       -0.46503334284582
O            1.26960246341308       -0.13429197247315       -0.28630458244202
H           -3.09781046334235        1.53838965754862        0.92320515572729
H           -4.56928560770821        0.68240440690756        0.33983047183386
H           -3.43370560839543        1.43836293011729       -0.83109477100022
H           -0.37243286100602       -1.84103932600325       -1.02279363228115
H           -0.24783799795161       -1.83470355000807        0.72596001016266
H           -1.71802107442413       -2.50524980936817       -0.04374553079101
H            3.69812729918327       -0.92151750741292       -1.34994134485605
H            4.56687550875387        0.39053934422120       -0.51446731237853
H            3.80543419320082       -0.92980006701101        0.40928657354705
