42
 energy: -83.008863159304 gnorm: 0.000392958959 xtb: 6.5.1 (579679a)
C           -2.52318582099069       -2.34071912322450       -1.72996862563551
O           -2.51435122638724       -1.53637017374846       -0.53989358749293
C           -3.39682846540964       -0.57241917859301       -0.40563797535629
O           -4.31528732767708       -0.33910818589440       -1.14289284901816
C           -3.08433084284347        0.28676774343025        0.85865592735533
C           -4.24379522154133        1.24768411151402        1.11898563483560
N           -1.90246460070712        1.03728458945387        0.48509698669448
C           -0.74775923246234        0.62762450161532        0.80498127979073
C            0.48205655426705        1.41304489818988        0.39635991742332
C            1.00071906305573        2.18081751076851        1.61582643835688
C            0.15287996528126        2.36350197926367       -0.75722467714372
N            1.52360119627891        0.46826890596381       -0.01113157460681
C            1.30541299187902       -0.44914052911497       -0.98142494917757
O            0.21745771697971       -0.67536230707787       -1.48409317638247
C            2.53100886932679       -1.19088942298943       -1.35804918607606
N            2.64614172442074       -2.15704734563729       -2.21544285862310
N            3.95911746288702       -2.51836862563749       -2.22670719600681
C            4.56638183404661       -1.74978526836607       -1.37653917470900
C            6.00193077179663       -1.73935029963739       -1.02302713250541
O            3.71896245198853       -0.88736794965654       -0.79152864933006
N           -0.50185423494272       -0.49153951581781        1.58756692263442
C           -1.46559051044298       -1.21822352626458        2.21669388485259
O           -1.21248883042471       -2.17615853858287        2.91257684658700
C           -2.88980327498472       -0.68973022517545        1.99841633194553
O           -3.80262154806375       -1.06804863570350        2.68720358755729
H           -2.97998521294128       -3.30476522892390       -1.50173770976581
H           -1.48210134467797       -2.47511649964017       -2.02281314893757
H           -3.08174732141647       -1.83955110590870       -2.52228498361685
H           -4.41685693259166        1.85240660784363        0.23127723744008
H           -5.14439846287072        0.68298710950669        1.35424977523472
H           -3.99679952452672        1.89883947777402        1.95433864946791
H            1.89543277179822        2.73844865759795        1.34676287018998
H            1.24344707737994        1.49014844308325        2.42145919006425
H            0.24013219949102        2.87842916580532        1.96285564379182
H            1.05254878179317        2.89164518680042       -1.06530946308642
H           -0.59433203426836        3.08439506886036       -0.42958097903261
H           -0.24440114383576        1.80274837726805       -1.60247212904841
H            2.46744657040934        0.66007950580976        0.27732822321859
H            6.12069886116596       -1.90118667571660        0.04798375402397
H            6.52293401327173       -2.51958188324461       -1.57279867674941
H            6.43515174803899       -0.76897595851963       -1.26520421383598
H            0.45752148845339       -0.75884063747797        1.74714381467625
