43
 energy: -83.136665831232 gnorm: 0.000485922806 xtb: 6.5.1 (579679a)
C           -4.19942010154267       -0.21604703484472        2.60938871788395
O           -3.37061916261896       -0.16659488228807        1.42200560808967
C           -3.87414851360909        0.33221230478165        0.34332973454925
O           -4.96929628164961        0.73541503976342        0.12570041445554
C           -2.75401197791771        0.36598706424820       -0.84145376662196
C           -3.27503448192002        1.31668958516885       -1.92074839313691
N           -1.57765817614813        0.87016706836219       -0.22034209238495
C           -0.65774538736859        0.08599453707887        0.19665439311755
C            0.53444536220759        0.66987684230329        0.93566983107007
C            0.47112603736642        0.23671601128455        2.40776464558011
C            0.50394413312963        2.19475487655944        0.83111795583865
N            1.78649667624194        0.22159758613288        0.31694079789107
C            2.30198762581941       -1.02111191319226        0.37320118368288
O            1.73181646929316       -2.00149692645478        0.84494684898120
C            3.64181736902877       -1.11589399973307       -0.23575518476979
N            4.40242133121616       -2.16112547657963       -0.34022947885245
N            5.52925400511892       -1.76355391961512       -0.98816048997020
C            5.39038228698220       -0.49836861571780       -1.24306125324249
C            6.33400572043318        0.40070948776255       -1.94042592197735
O            4.21691583475975       -0.02705409928854       -0.79107320202990
N           -0.69781376515664       -1.28436073875608        0.05724199624517
C           -1.65260068187939       -1.94175351897339       -0.63684056783350
O           -1.69726116894304       -3.13230469789215       -0.85756441286449
C           -2.70825720775248       -1.04012535730279       -1.19260615830568
O           -3.59896360898920       -1.57521586840725       -1.93303028562829
H           -5.22451700532067       -0.46088008551365        2.33080670743281
H           -4.15896618208237        0.75443175483600        3.10383393981445
H           -3.76617112005981       -0.98729331283278        3.24137765777209
H           -3.42179012454307        2.30219626110691       -1.48487475220865
H           -4.21683430791229        0.94397148693906       -2.31748627776189
H           -2.53678473941137        1.37926922100230       -2.71677156751158
H            1.32831232066439        0.64639458172743        2.93925784463948
H            0.47821457203392       -0.84693681645153        2.50077597452670
H           -0.44434892010222        0.62320992393193        2.85236879202007
H            0.52151322059419        2.50072119399215       -0.21332252627692
H           -0.40672270637645        2.57445059343969        1.29043697578092
H            1.36529757901407        2.61556026088303        1.34598898400825
H            2.34694289888712        0.94124120834071       -0.11384575982525
H            7.21934744038306       -0.15415382493332       -2.24215563451213
H            6.61959408558714        1.22045753726839       -1.28143167672867
H            5.85173939115055        0.82998574687112       -2.81847773750060
H            0.11169308046607       -1.81831456709306        0.43227682260723
H           -3.47830181908063       -2.54942351790939       -2.02551668604133
