43
 energy: -83.852779317728 gnorm: 0.000809662309 xtb: 6.5.1 (579679a)
C           -4.98317721821433        3.33608098724633        0.86800322420572
O           -3.84021914383447        2.50436761552318        0.81009121676567
C           -3.97522458457967        1.37286171151153        0.00317097693855
O           -5.06301961570217        1.19683148143333       -0.62049049508594
C           -2.87445735019150        0.53245780511093       -0.04808959922057
C           -2.90742162537757       -0.69905228954497       -0.84092551675036
O           -4.07398968685768       -1.01712301948381       -1.48510234189991
C           -1.82900794343494       -1.49804482855299       -0.86893506618624
O           -1.65985429152847       -2.71051122346622       -1.52139620594616
C           -2.78575153112839       -3.57025274911655       -1.59336689521486
N           -0.60717713067156       -1.08793232468462       -0.23568529048233
C           -0.72025434463900        0.01592968862254        0.64217188648547
C            0.51932248924904        0.29550452950081        1.47332956119497
C            0.45686265118597        1.71752697060146        2.04087827433473
C            0.63556689122824       -0.73627257255989        2.60710538401350
N            1.67244779337564        0.16411374468545        0.57216045806382
C            2.95583523281233        0.32586214354495        0.94977839899258
O            3.33492939235872        0.67585748973797        2.06187922127173
C            3.87797166764013        0.04188107377810       -0.17251368493564
N            3.53503509293439       -0.32124930160263       -1.37795620717383
N            4.69208413329575       -0.47957559877637       -2.08479139362800
C            5.66395455459298       -0.20561689074043       -1.27167965948153
C            7.11560742364901       -0.23270098388987       -1.56101741669598
O            5.22123734730498        0.13244343794484       -0.04925276121853
N           -1.72558805575923        0.79168448907883        0.70902591292224
H           -4.74129958457879        4.17215720843914        1.52648994246044
H           -5.84828773471069        2.79587638497220        1.27192583186491
H           -5.24706452602342        3.72185458320312       -0.12454338439540
H           -4.70262935448952       -0.25140409596190       -1.28693973383119
H           -3.49919657576479       -3.23609915631673       -2.35676851011918
H           -2.41108148545461       -4.55959573763636       -1.86524361238768
H           -3.30310418999497       -3.63438164738540       -0.62836478262918
H           -0.09579762599130       -1.87396603143614        0.14358520107253
H           -0.45313877955346        1.82619368778355        2.63021280958876
H            0.43389460952597        2.44290282841893        1.22761926696075
H            1.31846630402122        1.91685260381903        2.67493443066922
H            1.50387068525597       -0.52253952336705        3.22837330666476
H            0.73778368292608       -1.73869705369157        2.19436471806079
H           -0.26052605585338       -0.69824026429397        3.22496078361028
H            1.49087509381941       -0.19064907356522       -0.35844561109189
H            7.54927796243804        0.75320449914876       -1.39519200358429
H            7.61598069765942       -0.93696680646827       -0.89671497404810
H            7.27626672905771       -0.53157279156283       -2.59373966013685
