42
 energy: -82.873962454447 gnorm: 0.000423666033 xtb: 6.5.1 (579679a)
C            3.32784765222243        3.76062351518948       -1.09076086817237
O            3.34404497878149        2.44327561321407       -0.51567125348442
C            2.19899886793634        1.76121190069638       -0.57638829291847
O            1.19628104287842        2.19018879057988       -1.09197353499468
C            2.28708575031889        0.41441347510748        0.07120970526692
N            1.12397298042591       -0.24928079176476        0.10910881986765
C            1.10241181227334       -1.48696511929890        0.61413089126263
C           -0.25657670242102       -2.15028671508441        0.59487750695552
C           -0.44273077760932       -2.82526524967053       -0.77875814913713
C           -0.37906395608736       -3.18690252821487        1.72272362033502
N           -1.21508144214684       -1.10028453680253        0.79745204869544
C           -2.62489202101268       -1.18508168580327        0.48094625918610
C           -3.34180026001142       -0.52817004435111        1.75030636621743
O           -3.11285651280151       -2.32617408009442        0.19223257741869
C           -2.81564648746841       -0.08338770583733       -0.59203297390438
N           -3.47854561333129       -0.15013367364586       -1.69298400949095
N           -3.28310015158564        1.05672188275893       -2.31532979172033
C           -2.52230417748657        1.76823237483109       -1.54793454387467
C           -1.99765131864839        3.12946430097642       -1.78140207274345
O           -2.19248193042340        1.09780565911195       -0.42584742183825
N            2.14875626514119       -2.15865705404265        1.01084387697323
C            3.39159168624414       -1.58309412445346        1.05136837285065
O            4.37705472102247       -2.14458147623547        1.50391522566050
C            3.45365953857522       -0.18736763716803        0.53034203855310
O            4.64400844466789        0.38270317271620        0.59325478487738
H            3.08807930519940        3.69524167851797       -2.15366648095267
H            2.58127111225100        4.37317148067598       -0.58242853818650
H            4.32291723594484        4.17333906712348       -0.94725515906214
H           -1.37311202750824       -3.38752452550680       -0.81676350790618
H           -0.44472366705173       -2.06649801895502       -1.55914202402952
H            0.39080904969143       -3.50688207508602       -0.93866220497430
H           -1.34822420361757       -3.67890173969880        1.66744574540331
H            0.41885100821263       -3.91910852455313        1.60926583874858
H           -0.27751177601824       -2.69173298902395        2.68601456055104
H           -0.84078559284674       -0.17417784134871        0.96638126349128
H           -3.16079946233114       -1.19199825151267        2.58966441530579
H           -4.40237649918811       -0.47954966112710        1.52397758391578
H           -2.93686950363741        0.45899635371319        1.94112716509883
H           -2.33850210122094        3.49532978023144       -2.74668641122596
H           -2.33504057264020        3.80142288255264       -0.99314400133046
H           -0.90756346793713        3.10611301309748       -1.75832619427598
H            4.63060077323837        1.33375110819001        0.38511676758694
