47
 energy: -80.203121044968 gnorm: 0.000697449145 xtb: 6.5.1 (579679a)
C           -4.30871534605598       -1.66049214427828        0.93226922987204
N           -2.92535524751784       -1.57805681287953        0.46728621998911
C           -2.26701303638766       -0.41081532338664        0.16936552501411
C           -2.95202696985413        0.94950411474959        0.28866634218112
C           -2.04396011380226        2.03638910147346       -0.30738656374841
C           -3.21858808198279        1.27952582925615        1.76375795042913
N           -4.22490124114962        0.93638687499636       -0.43758664122895
N           -1.02534944217160       -0.40695159131636       -0.20307342715175
C           -0.29431139999614       -1.55413801783245       -0.34074471888716
C            1.23466251059233       -1.44501261443112       -0.72994205387770
C            1.36606491659226       -2.12159836138160       -2.14124923312116
O            2.02286315269349       -1.93567138233210        0.18949586307073
N            1.47068383818847        0.04301435681580       -1.02842192641960
C            1.70549230700485        0.81536150115522        0.20013186141113
C            3.14063567936812        1.26624094523443        0.32868494074616
C            3.44946848298790        2.61851456130942        0.46398677114543
C            4.76813151265502        3.04258039357570        0.57728677395068
C            5.76580317853179        2.08730873652473        0.54869493857840
F            7.05104195063387        2.49007698425583        0.65975354343001
C            5.50051692076502        0.73636086912334        0.41359773184337
C            4.17850997001344        0.33319951524667        0.30303891545685
C           -0.90942875583891       -2.74623051267248       -0.07546650103737
O           -0.30000777185739       -3.96250346807909       -0.19822227295285
C           -2.27878412797617       -2.80167009825330        0.35760322578847
O           -2.86009731350677       -3.86638022084102        0.61777832057392
H           -4.88684877233924       -0.82159762207229        0.55574966943821
H           -4.73848577617081       -2.59233244380360        0.56211549734172
H           -4.33148031964245       -1.67276587042168        2.02305282640971
H           -1.78786567025368        1.79380764331037       -1.33803274235921
H           -1.12532763239188        2.12514501857260        0.27163999215865
H           -2.56549759268618        2.99160646942879       -0.28865663100249
H           -3.94333121723002        0.59494021241733        2.19870585081809
H           -2.29132525599225        1.21942173955811        2.33332177881988
H           -3.61362477041270        2.29112162785998        1.84565948114484
H           -4.05046895457954        0.90608744884887       -1.43362815245506
H           -4.72074051815987        1.79354006728051       -0.24267410648380
H            1.12584723362952       -3.17967807873272       -2.05757949506545
H            2.39687417235559       -2.02429377326012       -2.47968514564477
H            0.70049042133632       -1.65129919151819       -2.86423702604288
H            2.32245174039114        0.08121149039833       -1.58605836894805
H            1.44404930613516        0.20226975537102        1.07514038806093
H            1.04778897975456        1.69493108315629        0.20214419358155
H            2.65528712335269        3.35669705075995        0.48704581391922
H            5.01670236665345        4.09027468927389        0.68416290128848
H            6.31425650686436        0.02241724888515        0.39674785442621
H            3.94041715234870       -0.72272468465810        0.20055718694172
H           -0.95450509488777       -4.64372411668700        0.02975641859842
