42
 energy: -83.588757361181 gnorm: 0.000282249763 xtb: 6.5.1 (579679a)
C           -5.96801820422214        2.31005499956099       -0.31804243975262
O           -4.83197921701924        1.48917518923429       -0.11668951088527
C           -4.84152694398680        0.74310127418757        1.04715836885814
O           -5.79615053647157        0.83601960799803        1.81419727371780
C           -3.66676318498239       -0.08238100196801        1.18948982494016
N           -2.74117080986542        0.01522917130653        0.15818913552509
C           -1.67046903314568       -0.69118642634135        0.18023078783795
C           -0.68285110445290       -0.66810362489771       -0.97567946315990
C           -0.73756135967482        0.70380077358006       -1.66871348014921
C           -1.12450436338606       -1.77848857140537       -1.94796579948116
N            0.64138287471834       -0.96169624640990       -0.42229857772617
C            1.78479161924367       -0.81118815025648       -1.34157710974879
O            1.66265236536898       -1.11207781049541       -2.57883763660926
C            2.90482929672725       -0.39617673613415       -0.68512409069106
N            3.02775277589624       -0.04473734126967        0.68043740480282
N            4.29710413594862        0.32924402102868        0.78959553762210
C            4.79472121479707        0.76545780251941        2.07224590099727
C            4.98899712137023        0.25634384141349       -0.32605476507919
C            6.42382124650190        0.57896322030212       -0.52965790646105
O            4.20106708765854       -0.20396222130722       -1.33898165150830
N           -1.40712908958015       -1.57762438950980        1.20115623258780
C           -2.22676884754661       -1.77103564312884        2.28392494345485
O           -1.90074249043171       -2.58665352627403        3.15728524490733
C           -3.48653552676683       -0.95493206461686        2.30281135125663
O           -4.28130263449043       -1.08797183650666        3.26133905329863
H           -5.81990068354416        2.84189273633953       -1.25771215611216
H           -6.08113052390384        3.03381103884487        0.49687606083407
H           -6.88229947419330        1.70895286565099       -0.37951719151282
H           -1.76737480620607        0.93588767595969       -1.94194240361481
H           -0.37329375006459        1.47908907838434       -0.99420441357213
H           -0.12291204693505        0.69683476265770       -2.56807011850551
H           -0.50560918413047       -1.77874106722880       -2.84370303351618
H           -2.16408378360026       -1.61904506379254       -2.23680574629916
H           -1.03858277243463       -2.74999918058068       -1.46090989905303
H            0.81006152961098       -0.34684109548334        0.37418373247382
H            5.17132916531671        1.78476965842136        1.99561801182739
H            3.97456608891290        0.72551659161922        2.78586778977965
H            5.60252782956152        0.11080020472063        2.39783272187575
H            6.67949429527477        0.41284754153836       -1.57424429008877
H            7.06344695057280       -0.04968757932329        0.09340785640108
H            6.63526757038326        1.61961192373155       -0.27651149388323
H           -0.54515479682711       -2.10487440207668        1.16729094441722
