47
 energy: -79.485393064940 gnorm: 0.000295389081 xtb: 6.5.1 (579679a)
C            4.44776505421305        2.02026668841373        1.28411593588085
C            4.75996744498781        0.88614760056110        0.26846508569200
C            3.60920762136094       -0.00664481038699        0.03905685505925
C            3.70441732182995       -1.36853323945859        0.12587150617758
C            2.51628123227538       -2.27929704091510       -0.10204660122543
N            1.33990232269578       -1.54389680234721       -0.50286074832721
C            0.36797848629995       -1.24817196003873        0.39748372625338
O            0.36999165252761       -1.68529002771955        1.53564082491485
C           -0.71299969155903       -0.35689092675759       -0.13544108811906
N           -1.94592416113746       -0.52555462798673        0.41955322041332
C           -2.95839943921741        0.19856201819069        0.05149079454757
C           -4.29089673797259       -0.15097388570832        0.70291673231461
C           -5.06498292407068       -1.08771381017381       -0.23671553479115
C           -4.02689883804476       -0.87325737848063        2.03617300888780
N           -5.07765621370371        1.04634521203528        0.95386536140606
N           -2.84506559975625        1.17107874508787       -0.90888489097367
C           -3.96820503371143        2.00359430559037       -1.35102294805710
C           -1.62520394229219        1.45327126471239       -1.49954247248500
O           -1.47530363681213        2.33742317008164       -2.33889718276942
C           -0.52409685451506        0.61488834329510       -1.07142757194054
O            0.67278831625389        0.88454067377241       -1.64292154326746
C            4.94602042573116       -1.95816112296238        0.45101426702290
C            6.08981650959066       -1.19750336337130        0.68161000144888
C            5.99514180073534        0.16693959332576        0.60456299693315
F            7.04818937215923        0.90815402037409        0.83428946234281
H            5.30647037398729        2.68461086341453        1.35244723702137
H            3.57986965585401        2.57830952096312        0.94222514595292
H            4.24164590895125        1.58535140017542        2.25963661439287
H            4.95029096128237        1.41490833171231       -0.68253274211073
H            2.66769263400790        0.47033685197021       -0.21384123585130
H            2.76584385902155       -3.01450173856154       -0.87147821567126
H            2.28755365448963       -2.81056958676067        0.82898024193292
H            1.33769712637140       -1.13543979154242       -1.42109950696499
H           -4.46343045330409       -1.96894766346910       -0.45618964460198
H           -5.99087946492577       -1.40204933878691        0.24295409915150
H           -5.30970200042105       -0.58916091033387       -1.17268758371886
H           -3.49096395160310       -1.80502804609015        1.86064398329721
H           -3.42987975595170       -0.24150447405503        2.69188433810629
H           -4.97674264226886       -1.09154579591439        2.52061067823862
H           -6.02628485362027        0.79859074009765        1.19463821193738
H           -4.67737422737414        1.58250748894011        1.71111375224754
H           -4.85207120542214        1.39188585339875       -1.50238255066297
H           -4.17759194266231        2.76321781315797       -0.59982881649640
H           -3.68520749797253        2.48182878743216       -2.28835944701395
H            0.54547543695968        1.60482129575585       -2.29115412727157
H            5.01269209942409       -3.03802551264646        0.52679051257907
H            7.03305879732665       -1.66891872796830        0.92897085818333
