42
 energy: -83.003512240239 gnorm: 0.000295305433 xtb: 6.5.1 (579679a)
C           -4.36127764069311        3.60985774344218       -0.93331606147975
O           -3.45088616059651        2.52138553339534       -0.78009736432669
C           -3.82607433018797        1.55207952321693        0.07585666817145
O           -4.87412954908541        1.59908542518113        0.68196860933992
C           -2.82010876072235        0.46931135066611        0.16007392237249
N           -1.71086766220693        0.64516073563414       -0.59317410439801
C           -0.76399168463240       -0.23749385959367       -0.61273677171102
C            0.46021848077001       -0.03955796894959       -1.48615403093360
C            0.39660926535626        1.35135593513384       -2.11860089509019
C            0.52155341358389       -1.11463121499055       -2.57981136614388
N            1.68466842821985       -0.08181151937868       -0.66696659441421
C            2.21078369978724       -1.18060311680532       -0.09910799377987
O            1.69235846655529       -2.29220061264417       -0.08063543904963
C            3.51172471197915       -0.92742841980845        0.55976308823082
N            4.25385436743221       -1.77750281118877        1.19938531239314
N            5.34638202862501       -1.09414511444581        1.63718142421067
C            5.20543035256472        0.13268937312524        1.23957072110503
C            6.11900008453278        1.27230949792960        1.46910139460329
O            4.06457279047589        0.30499160967987        0.55184061465886
N           -0.88096664943806       -1.38492069048574        0.12596617971662
C           -1.92155949543879       -1.63705637036747        0.90825433363120
O           -1.83001032246226       -2.78817320136261        1.55726848225310
C           -2.84505659625890       -3.23893278945333        2.46258232527267
C           -3.03216513596432       -0.67917207149532        0.98857734940460
O           -4.01853614847075       -0.89196605274145        1.70878043879643
H           -4.48929756020905        4.13468917261454        0.01737083425132
H           -5.33376008388988        3.24663800479733       -1.27700173954979
H           -3.92780565205742        4.27855407733682       -1.67437996360494
H           -0.50074926707679        1.43316241310715       -2.73008699438465
H            0.35799641929911        2.11592430056075       -1.34427543556155
H            1.27070142415709        1.51571832602581       -2.74495261404290
H            0.53064125241321       -2.11377605112816       -2.14994360602077
H            1.42321964049807       -0.97642048805614       -3.17367369616247
H           -0.34917804910593       -1.01721129929767       -3.22627716538623
H            2.22672217328699        0.76703652453334       -0.63072080932632
H            7.01980498528258        0.92611989007662        1.96977578712997
H            5.62589482994149        2.02368322622336        2.08598637958963
H            6.37957381584339        1.73657862552653        0.51886524581790
H           -0.11154152295569       -2.06128829436823        0.10046490898979
H           -2.96448944297432       -2.53591614746670        3.28910404286652
H           -2.49234777149098       -4.19971091939453        2.83760584835030
H           -3.79691014467482       -3.36641227479621        1.94395773423069
