20
 energy: -38.344482641508 gnorm: 0.000480257066 xtb: 6.5.1 (579679a)
C           -2.27681372820655        1.99003357514367       -0.11698053276020
O           -1.95517976684236        0.81356420817376        0.58256974084342
C           -1.42403715668141       -0.29199769682667       -0.31072779403914
C           -1.55800171814273       -1.54902100723356        0.60029320815575
O           -1.97606024075726       -0.36391557343767       -1.46798276443157
C            0.11440855503951        0.06302896118403       -0.38705620498577
N            0.65308464901509        1.08284073029441       -0.97825508789864
N            2.02170876842077        0.96268384404149       -0.82916103332969
C            2.21713877312087       -0.12428872051606       -0.16253117218112
C            3.51357780754341       -0.70334722451597        0.26661088352298
O            1.06128745919405       -0.74430489109237        0.14912873861393
H           -2.80080324099516        2.65897109703388        0.57239763404509
H           -1.37497609060694        2.50729644781417       -0.48763385558667
H           -2.93467118806549        1.78612604110310       -0.97649019963623
H           -1.08425915676105       -2.39538384857965        0.10712439864617
H           -1.09235496410323       -1.38141247576466        1.56932354508216
H           -2.61707072736663       -1.75980758554569        0.73593323944767
H            3.58761228332168       -1.74171175729582       -0.05478590038724
H            4.33013379686800       -0.12976248095934       -0.16536967992834
H            3.59527488600797       -0.67959264301947        1.35359183680822
