42
 energy: -83.001132272773 gnorm: 0.000642881986 xtb: 6.5.1 (579679a)
C            5.43326799216596       -1.82274533828790       -1.73397332766213
O            4.23410854292130       -1.33470284402381       -1.13311412192924
C            4.22947333121382       -0.02888626679173       -0.80383053923760
O            5.18608368003197        0.68752230951174       -1.00379664854589
C            2.94924062452281        0.38246603500671       -0.18594301244122
N            2.02565152663351       -0.59605600405739       -0.05103804376258
C            0.87133644434814       -0.36362057405591        0.48670955163872
C           -0.13513849417777       -1.48477794265570        0.66275652813738
C           -0.36432918669832       -1.77078272454096        2.15336443132820
C            0.39145776198786       -2.73816242266772       -0.03830550036751
N           -1.41009749718996       -1.13587228775201        0.01343852357098
C           -2.29714244615466       -0.22831822501949        0.45984023601615
O           -2.12046527408958        0.54414983054658        1.39321369869649
C           -3.53897665828315       -0.24725656088324       -0.34694137380641
N           -3.76325509581549       -0.98381285213580       -1.39368329182237
N           -5.02056914737344       -0.68616676460514       -1.82041936399030
C           -5.48578868880023        0.21275529438727       -1.00517341693003
C           -6.81629732148386        0.85787878132545       -1.03373888238590
O           -4.59505954588255        0.53252623254964       -0.05582104266878
N            0.56684645188109        0.89227176022527        0.94285352912461
C            1.39925794642841        1.91924665224045        0.83492259436892
O            0.90791659573711        3.05238748824544        1.31143361680149
C            1.64675966181208        4.27993053374317        1.28626408228470
C            2.72714003343381        1.73311570746355        0.23392181732898
O            3.52531746134256        2.67536971618045        0.12612643116213
H            6.28345902086803       -1.67153362351025       -1.06305245783914
H            5.62324962582170       -1.30325929104973       -2.67723411993190
H            5.28332480211296       -2.88526496342144       -1.91531802204452
H           -0.72006181443299       -0.88437307463387        2.67330370893550
H            0.57308213855859       -2.09135262308390        2.60511452025228
H           -1.10164250773894       -2.56406297112171        2.26229178153520
H           -0.32175613160301       -3.55262769561707        0.07065170514303
H            0.55329935003978       -2.53886717343843       -1.09667108168809
H            1.33996666238258       -3.03371506210545        0.40735171196220
H           -1.70016196115670       -1.72256044942257       -0.75589614422705
H           -7.35119516614623        0.64539654352532       -0.10819477050386
H           -6.70490519677958        1.93851339171772       -1.11742529746765
H           -7.38758312480469        0.48234558264750       -1.87873075091059
H           -0.35501337130224        1.05393339989753        1.35924048610951
H            1.88929444242485        4.56426033860835        0.26061426028762
H            2.56284280600789        4.19124971987385        1.87309926949047
H            0.98706472725173        5.02345641719270        1.73332872598898
