33
 energy: -57.820626819748 gnorm: 0.000568653735 xtb: 6.5.1 (579679a)
C            4.04507099731351        1.54254433636546       -0.53152899616126
O            3.15102560145814        0.40222583398437       -0.51962362304318
C            1.95016631196774        0.58498617836733       -0.08978902153586
O            1.43331697503557        1.56407343298797        0.33876257659900
C            1.10565602309787       -0.81939973795617       -0.21589411187944
C            1.70356162900617       -1.67744919827567       -1.32746593214042
N           -0.21164242776267       -0.38397554389810       -0.52491624609446
C           -1.03417176656177       -0.10405093273354        0.41447463909852
C           -2.42651691377696        0.40700820177000        0.10763699864263
C           -3.26279355162381       -0.78514824081136       -0.37701434126668
C           -2.34515353491392        1.49278680619676       -0.97306757710660
N           -2.99368729525989        0.91872566237625        1.34806954689344
N           -0.76248938439529       -0.29790986024435        1.75233597101066
C            0.34355900320764       -0.90860573187340        2.22702657419603
O            0.58376102008694       -1.18326837281025        3.38250961301433
C            1.30817931498297       -1.27806323225933        1.14524713151789
O            2.35983459896393       -1.91812300956454        1.48884738539716
H            4.12285138184792        1.94669674109831        0.47781891389107
H            5.00180993948017        1.16147547091860       -0.87858553382526
H            3.65327826308778        2.29883290933815       -1.21175742166518
H            1.07738936972128       -2.55891960078785       -1.45224316727330
H            1.71663452610749       -1.11342956234542       -2.25695924488673
H            2.71354043919934       -1.98296013880604       -1.06583790078857
H           -4.26405560233161       -0.44580297984918       -0.63694778820689
H           -3.33433541100933       -1.53534566704140        0.40915096271416
H           -2.79857284593177       -1.23184320774686       -1.25516927563868
H           -1.88770395458889        1.08348786155212       -1.87298038795093
H           -3.34615333193639        1.84993202209614       -1.20728324437427
H           -1.74244262605533        2.32804715201688       -0.61903211545629
H           -4.00095105106299        0.84641708652611        1.32896450127697
H           -2.75082321508972        1.89298593645824        1.46531336309258
H           -1.51587295213637       -0.01514944646514        2.38435803771916
H            2.40772946987212       -2.08077916858413        2.45881871422889
