42
 energy: -82.885183908797 gnorm: 0.000593809911 xtb: 6.5.1 (579679a)
C            6.90201534433936        0.17127597582168       -1.32916051955537
O            5.71610092471766        0.74981526941362       -0.77567466928391
C            4.61484297402831        0.01352517249445       -0.83266401294258
O            4.57175845729219       -1.09340555896296       -1.32069764643891
C            3.41575282395333        0.67453677770502       -0.22501511677220
N            2.35644614041876       -0.12787268099685       -0.13583820995372
C            1.21804210974051        0.29128390658712        0.37653425248658
C            0.09400578759876       -0.69622058541587        0.48630112620751
C            0.03549288210131       -1.57489106784684       -0.78176195082584
C            0.42200570474605       -1.56944562113387        1.71991261880829
N           -1.15362042656553       -0.00351354186006        0.66080835782363
C           -2.43171249757838       -0.71688742864422        0.80468414080814
C           -3.20477092789641        0.04922421772968        1.95193020396593
O           -2.38619263282958       -1.98428873795252        0.98984466662101
C           -3.20106481682009       -0.32092929503975       -0.48220228099544
N           -2.68731790575060       -0.10112085542417       -1.64601670910871
N           -3.74434884432317        0.13245581223958       -2.48501324822315
C           -4.82067238073942        0.04378400135889       -1.77171678898245
C           -6.22297845916070        0.21542804071527       -2.20977637664689
O           -4.53952146571851       -0.24336184595680       -0.48526836303571
N            1.07914524457058        1.53927530061042        0.86636552549432
C            2.08159156846780        2.50545061264914        0.84760864889945
O            1.88264155713285        3.59843725343589        1.32464373219826
C            3.38621034049063        2.06042663188882        0.20952504900745
O            4.30666882377313        2.85571150852977        0.10006731452607
H            7.70340954925367        0.88882222941242       -1.16580143705373
H            6.76560693577660       -0.01187964118076       -2.39761128284382
H            7.12690818408754       -0.77274269251692       -0.82716705457688
H           -0.68394263219731       -2.37737723959150       -0.63611627570380
H           -0.27372263358044       -0.96508291527975       -1.62912438287531
H            1.02146498505037       -1.99614773271182       -0.96802211230784
H            1.41686350927624       -1.99363096270041        1.59820110918010
H           -0.30472227648308       -2.37261281992319        1.81085089096895
H            0.39650229448513       -0.95411526647299        2.61671863102809
H           -1.23811641260724        0.89076183091292        0.20218341785029
H           -4.19693853254939       -0.38634595799253        2.02573667649118
H           -2.65047307714532       -0.11260483521277        2.87119565658857
H           -3.26593983004325        1.10775361699470        1.72318712562737
H           -6.24944814746238        0.41967052475039       -3.27752709963690
H           -6.79466108416312       -0.68710364332131       -1.99400486897282
H           -6.68153526790206        1.04259492210254       -1.66822331736783
H            0.21822511021364        1.81134732077997        1.31636057952702
