42
 energy: -83.668462190430 gnorm: 0.000330686427 xtb: 6.5.1 (579679a)
C            6.22538812093520        1.17051893463733       -0.46907538890101
O            4.92317590311046        0.61870235869887       -0.35865048156794
C            4.66745118583033       -0.45636186692314       -1.17269804144971
O            5.53222036140392       -0.86183477821435       -1.93653618180474
C            3.33261567179633       -0.99261774921516       -0.98791296358158
N            2.55229308125402       -0.33257629689279       -0.05353973758556
C            1.36485935960095       -0.73958185482178        0.20598970385304
C            0.52476779852092       -0.06916531480673        1.27825252954002
C            0.98017956345342        1.38784358592335        1.44835483448703
C            0.74103960412428       -0.86014874373906        2.58075041892942
N           -0.87389245697933       -0.15155909622950        0.86022799570827
C           -1.88162078620127        0.46937559686080        1.62964675708885
O           -1.71531758762744        0.75629345926043        2.83405549056860
C           -3.08407304707599        0.67376206581737        0.92068114431634
N           -4.20910520290324        1.20085774162091        1.38585906873802
N           -5.11864869986801        1.26286184430169        0.46175614990000
C           -4.53833213572234        0.71023914148680       -0.77350657283597
C           -4.53896563256101        1.78390976679202       -1.87434821825912
C           -5.34269367645548       -0.52415925656855       -1.21534710914870
O           -3.20659283532011        0.33925337604198       -0.44535350892833
N            0.82855658027355       -1.85418903300924       -0.40554667300672
C            1.48180364171146       -2.59813353334160       -1.34920182575623
O            0.93251263190095       -3.58341694573242       -1.84239915697955
C            2.87666847227024       -2.13194447397379       -1.70276813675592
O            3.51832630087702       -2.76388872469459       -2.56410902572771
H            6.98720626205140        0.42532982135717       -0.21649028380510
H            6.28232091617061        2.00274523351154        0.23157605465186
H            6.41245506542475        1.53213596834544       -1.48569103029599
H            2.04869303985745        1.41141281799538        1.66094777412903
H            0.79467544767875        1.94685490128757        0.53163100824389
H            0.44274198602008        1.85918991532026        2.26956395180985
H            1.80620046327609       -0.89863375491443        2.80786824255280
H            0.36861541419744       -1.87696243797965        2.46065222354360
H            0.22060797014108       -0.38886022793220        3.41232549296346
H           -1.00406724938223        0.00667121941675       -0.13232501107580
H           -3.97130769612286        2.64922882237052       -1.53563523345737
H           -5.56135163742015        2.09086790031295       -2.08504998376058
H           -4.08488114216815        1.39367691792570       -2.78370499552601
H           -5.32651244708179       -1.26833372496189       -0.42051322174990
H           -6.37376000383774       -0.23767137674189       -1.41225999647624
H           -4.90974330646899       -0.95548469046003       -2.11625748110505
H           -0.10451129868604       -2.14620850813375       -0.15305658148174
