21
 energy: -30.734731206433 gnorm: 0.000237575137 xtb: 6.5.1 (579679a)
C           -3.81154565874417       -0.49175158193311        0.67713771619040
F           -2.89225020353701        0.32228004060253       -0.07394818468525
C           -1.43267495524950        0.16556614392941       -0.17057284255250
C           -0.97142190832082       -0.65773990960275       -1.16503520449381
C            0.41046930472966       -0.76500323365099       -1.27002157905423
C            1.24935422589018       -0.06970689774058       -0.39828242448931
C            2.74470305800100       -0.22302793576467       -0.50446260530885
N            3.42965474355523        0.92826960115264        0.07217339940180
C            0.69909965079983        0.74699516996428        0.58975597393640
C           -0.67741981304263        0.87923761677168        0.72370873835768
H           -4.78695741108101       -0.12289400801845        0.37492788549026
H           -3.62667158671698       -1.51696226647587        0.37109111978457
H           -3.58721932981631       -0.31049786644641        1.72401269188467
H           -1.64146100162270       -1.18462903179554       -1.82901507184764
H            0.83006591561172       -1.39913227721772       -2.04150968238792
H            3.03502421369268       -1.11459398505980        0.06258407379262
H            3.02910496091091       -0.38669612425692       -1.55304940319393
H            4.40943317415011        0.70172859398474        0.17109096710127
H            3.35834740982095        1.70662887833769       -0.56918605729875
H            1.35875128598629        1.28563868803096        1.26070398007265
H           -1.12638507501747        1.50628738518534        1.48073950929900
