33
 energy: -58.572027515765 gnorm: 0.000257594451 xtb: 6.5.1 (579679a)
C           -3.24619967266908        1.09807016793115       -1.25282608889047
O           -2.97818637222728        0.77507606057006        0.09639764180642
C           -2.47520663454397       -0.56345789374426        0.31799860986399
C           -2.42784990822108       -0.71098573846367        1.84852555545112
O           -3.34532700071815       -1.50971492644523       -0.21279124198429
C           -1.07293861657351       -0.70132783283040       -0.28701711032340
N           -0.08273522746579       -0.03997409292040        0.38896167357297
C            1.13102306127695       -0.08487602737875       -0.04895956530512
C            2.23040937601631        0.68563426535078        0.66506641401450
C            3.46651836030507       -0.18989897641650        0.89896577630422
C            2.60377303907754        1.92266262488420       -0.16852390258716
N            1.73946894600941        1.14173921038863        1.96233498503307
N            1.44902702933016       -0.77998556600746       -1.19007936014933
C            0.54140333474389       -1.49167382611520       -1.94770796281061
O            0.93809361926196       -2.09250207148908       -2.95114302537703
C           -0.85550744299791       -1.43592703819854       -1.45058726968715
O           -1.78094403678695       -2.05038886553041       -2.09310769753212
H           -4.02146723382458        0.44586964059809       -1.67708545125961
H           -2.34219074635193        1.02392362154922       -1.87454826998240
H           -3.60308272169224        2.13025221219195       -1.27255344769074
H           -3.42290377635807       -0.54370455819800        2.25771146686091
H           -1.73377616653289        0.01530213132968        2.26639575403206
H           -2.09801118681216       -1.71686353032092        2.10049424272849
H            3.95024250383017       -0.43940999817300       -0.04422015462439
H            4.18087176124440        0.34813476602600        1.52146434435200
H            3.18686553229225       -1.11348765013868        1.40528910287729
H            2.98835198735824        1.62423342697408       -1.14278315880600
H            3.36690807809582        2.49867526877219        0.35353966600308
H            1.72658207919229        2.55313990416305       -0.31335579143598
H            1.67472060326547        0.34791947933526        2.58798103524931
H            0.79622910154191        1.50478936469691        1.84038887633121
H            2.40181235933364       -0.79623454504483       -1.51524573169127
H           -2.88597502840223       -1.85501000734465       -1.06897991433890
