42
 energy: -83.625823441823 gnorm: 0.000364929738 xtb: 6.5.1 (579679a)
C           -4.30054364115071        3.55906371340214        0.28203619556585
O           -4.10876970657273        2.16215029434964        0.39168021714862
C           -2.80517574185409        1.73584036345447        0.33268558841520
O           -1.90658924318073        2.57157414556398        0.20274939575928
C           -2.61156709706222        0.29538186546587        0.41090724932927
C           -3.70119363534266       -0.61916918741944        0.52557848583060
O           -4.91603274852071       -0.30885040623554        0.73673907757467
C           -3.35215647448545       -2.05457183817057        0.32183747507890
O           -4.18235402404323       -2.97339063332653        0.23777216344268
N           -2.02277365756384       -2.34208605218638        0.10617342255229
C           -0.96539275093878       -1.43647185214995        0.53563566701371
C           -0.69043345103291       -1.67288034252566        2.04846422716158
C            0.32296648504867       -1.72652553339228       -0.31319061695883
C            0.95531324748111       -3.08479136151793        0.00672827829274
C           -0.03822436623121       -1.64487466410819       -1.80494952090264
N            1.24324861391336       -0.64269219119710        0.01939067180725
C            2.51139148306870       -0.52971362647320       -0.46655960992644
O            3.12190534529213       -1.43093761805650       -1.06432179279472
C            3.09323345692143        0.76780806268162       -0.15538949485106
N            2.49943381015058        1.77024736532110        0.46650128141095
N            3.40656244694566        2.79200197603760        0.51715248742928
C            4.48285640861104        2.37226170663845       -0.06425818382879
C            5.74807785927241        3.12037179988194       -0.25896621658483
O            4.37003656130511        1.10628323230068       -0.51887696526513
N           -1.29796653616061       -0.06379585047003        0.31622057885320
H           -3.92422608654369        3.93554221347381       -0.67636291174297
H           -3.78777670410579        4.09403374286143        1.08981067292750
H           -5.37259148408597        3.74596623770290        0.34841888402616
H           -1.80071632029777       -3.32468290170841        0.13804184436330
H           -1.54582693335373       -1.32110712810935        2.62491723650883
H           -0.54151667131715       -2.73042772142150        2.25623677806237
H            0.19440456454180       -1.11656940628633        2.35300813704610
H            1.42580635389649       -3.07111681778485        0.98878544223987
H            1.71573974289120       -3.33490832032873       -0.73188218217675
H            0.19773613195616       -3.86687575185363       -0.00933226566551
H            0.85515933582741       -1.75380879013075       -2.41831993849763
H           -0.74006658946775       -2.43781273196954       -2.06090368159462
H           -0.50199019450444       -0.67978840434836       -2.01537217481765
H            0.76488238762321        0.22072631663996        0.28811484860246
H            5.96961422099383        3.22054740045330       -1.32156362233272
H            6.57716970670000        2.58910864469430        0.20802276408122
H            5.65834789537184        4.10893905024905        0.18452710741720
