47
 energy: -80.220252319575 gnorm: 0.000727657118 xtb: 6.5.1 (579679a)
C           -3.31478198120088        2.29414979123271       -1.24491753380118
N           -2.37865117586303        1.64689425860298       -0.32835772293667
C           -1.94119985555165        2.45590449264555        0.71148665570822
O           -2.47008301862757        3.57667456456451        0.87064489104631
C           -0.85786331001118        1.93058779532965        1.48546458522321
O           -0.42407372165030        2.69045833121647        2.57452153093424
C           -0.19036299385601        0.79489831663708        1.04118225066154
C            1.07825186017932        0.35503444148431        1.67646473876568
O            1.63959618568769        0.93537015881664        2.61512171452876
N            1.57437426317735       -0.79101074929203        1.15353502815441
C            2.87213136641067       -1.31459181710014        1.52093182263148
C            3.94154087106375       -0.90866348069378        0.52723070493282
C            4.06114053009315        0.42096507414646        0.12597160757274
C            5.04009794064799        0.80115678621344       -0.77995493510345
C            5.89358938261788       -0.17114714229975       -1.27063260750059
F            6.84584135438265        0.19041457578634       -2.14968661494305
C            5.80729752205279       -1.49788927814645       -0.89280450227698
C            4.81871468940418       -1.85995705263981        0.01327225197904
N           -0.57220131037251        0.05332220230149        0.00343562112782
C           -1.86913644864339        0.29004080284528       -0.59056854824304
C           -1.65290378225222        0.08489739867427       -2.10659582809310
C           -2.86806758529635       -0.78758542522891        0.00869350998135
C           -2.25826691369477       -2.18800102899579       -0.12214994717365
C           -4.26197671512339       -0.78689196507302       -0.64179002274468
N           -3.02336771637712       -0.49875384916967        1.43900915418865
H           -3.70602577489182        1.58733629425556       -1.97051877043934
H           -4.15186113333570        2.71229705252271       -0.67775536591600
H           -2.82346612656745        3.11409246437917       -1.78246702305684
H            0.40230461312644        2.28772945984286        2.90726442991169
H            1.13105887695946       -1.14422917995219        0.31256625876928
H            3.12315986509312       -0.92192671070505        2.51439087628767
H            2.81330316286260       -2.40527043032149        1.58305759922966
H            3.38333733117780        1.16752355575815        0.52612226810002
H            5.14469667453008        1.82961445830375       -1.10082394994596
H            6.49345366924516       -2.22957455671293       -1.29807269110116
H            4.73544633740152       -2.89587036387018        0.32085885966281
H           -1.10391770242094        0.93746762058584       -2.50548220859076
H           -1.04326712859280       -0.80549582753774       -2.24973919013338
H           -2.57613070282949       -0.03426948799102       -2.66784860806433
H           -2.20881899268859       -2.49263060825267       -1.16690639029454
H           -2.86796497483198       -2.91420711212666        0.41620010713269
H           -1.25043416595757       -2.19740164024773        0.29550096589793
H           -4.20959526035398       -1.00513893003585       -1.70746780449104
H           -4.75908144579798        0.17151488391646       -0.49840251993747
H           -4.87601023150472       -1.55525553959963       -0.17015710565335
H           -3.59709129972638        0.33529644369799        1.53513089444604
H           -3.54273502810445       -1.25787704776403        1.85989156357379
