42
 energy: -83.613978076490 gnorm: 0.000309898144 xtb: 6.5.1 (579679a)
C            2.71836942886764        2.00498732558693        2.33859211329358
O            2.22517427647703        1.17161355284954        1.29805056194451
C            2.61670954427516        1.50197941936943        0.04086051834933
O            3.34494995751429        2.46356534457926       -0.16413218898929
C            2.18028117991334        0.50723940862804       -1.01977757682745
C            2.05620559319195        1.21472466795022       -2.37257548488350
N            0.91300144791629       -0.12056535121865       -0.68055178164158
C            0.93683568975461       -1.13119295054471        0.10976832498457
C           -0.37620505915180       -1.75185354882056        0.57756606830808
C           -0.45939565418665       -3.20870830801228        0.09430853101123
C           -0.44657414124679       -1.68374343501024        2.11382072098057
N           -1.45511107160316       -0.97566271456274       -0.01921132144960
C           -2.78455536695475       -1.16542507083164        0.30678456371642
O           -3.20425709723641       -2.19041111898126        0.89166738703428
C           -3.65405835933112       -0.11108041109333       -0.12882836072932
N           -4.97897308405891       -0.03793908414309        0.01880251223913
N           -5.36291630002152        1.16231141703268       -0.51080978970002
C           -4.29888056290052        1.75519865405433       -0.94475865356038
C           -4.22168323061182        3.08863379992477       -1.59190144885672
O           -3.17114637777418        1.02747533141601       -0.75001940960081
N            2.08452862855238       -1.68786111155429        0.57892482778080
C            3.33838156040668       -1.53925962325714       -0.11595097331015
O            4.20856849125737       -2.43143458546958        0.11573798607714
C            3.40183104120932       -0.45955324961990       -1.01804807163511
O            4.37466379938857       -0.20337122824330       -1.80923304245761
H            3.80867422424381        1.93631196131651        2.40963082513364
H            2.44272085469228        3.04878340199007        2.15941505306800
H            2.26616393119287        1.66074197518937        3.26746589877186
H            1.25347255960541        1.95022892985926       -2.34241171660442
H            1.83625241348410        0.48420074498757       -3.15043268763456
H            2.99265292970908        1.71746997078833       -2.61417039859818
H           -1.37552797643670       -3.67291262135941        0.45605077162994
H           -0.45466808543396       -3.23825882887544       -0.99527294773772
H            0.38977923482103       -3.77891087197970        0.46751682998777
H           -1.38081433714985       -2.11614215458294        2.46859254743861
H           -0.38645065422822       -0.64640207137980        2.44212606163095
H            0.38003377679810       -2.23981525441781        2.55229321838967
H           -1.18149703380462       -0.05474998296998       -0.34785741056259
H           -3.83606825505549        3.00026062619358       -2.60801685979932
H           -5.21469209309367        3.53041349941441       -1.62467200162480
H           -3.55490850270857        3.74562430209915       -1.03277563499972
H            2.02913467971245       -2.52650775629921        1.13343543942916
