42
 energy: -82.963869708355 gnorm: 0.000403853844 xtb: 6.5.1 (579679a)
C           -5.24279550227708        2.18389200450663       -1.55981366558429
O           -4.32414846942724        1.28710010468964       -0.91347425852558
C           -3.04746174132326        1.63910891604718       -0.90329696197977
O           -2.60642868100502        2.65272086513882       -1.37676423117231
C           -2.19298200553246        0.58727516839880       -0.23183918794259
N           -1.04162923520788        0.38904148532885       -0.74217559971019
C           -0.32843797248239       -0.74466882461624       -0.31425233629710
C            0.74961649220767       -1.25092771760087       -1.25522161556928
C            0.55164910803436       -0.68975373711172       -2.66527710368182
C            0.73758587440085       -2.78428824317249       -1.24873941794356
N            2.01669207417347       -0.75915714110657       -0.69332446077430
C            3.21775141569269       -1.02861877283483       -1.24343370764478
O            3.40401327679481       -1.70198688102577       -2.24313386970477
C            4.34026392484317       -0.41065226485055       -0.49199134708803
N            5.60833505638533       -0.50219790859177       -0.74758448339950
N            6.25569219358371        0.22432717090929        0.20612556472180
C            5.34342475278172        0.71527852789035        0.98589012104017
C            5.53252037523461        1.57435487586600        2.17480162477728
O            4.10916028577557        0.35095125383429        0.59988938417556
N           -0.54978890914091       -1.34758787951184        0.78520517769300
C           -1.54457959656819       -0.86564713363342        1.63741587895550
O           -1.42880480046742       -0.87260200848617        2.83354949898941
C           -2.76655699085772       -0.27385844920894        0.90720807097772
C           -3.59663327790787        0.53131653633092        1.90931050853720
O           -3.50110432828611       -1.32021318152936        0.32045324760171
H           -6.24084981785972        1.82693691738737       -1.31899935579465
H           -5.09384798706066        3.19793352321216       -1.18450063360021
H           -5.07773467434625        2.16072044847397       -2.63838451146022
H           -0.43255573727824       -0.97385028086316       -3.03310187191925
H            1.31037931049556       -1.08889314796218       -3.33565055475115
H            0.62260876972430        0.39632600127160       -2.64762819164153
H            1.50240235245319       -3.16865604785057       -1.92021099191936
H           -0.23697962839382       -3.13815436443651       -1.58070035549483
H            0.92449358145343       -3.15079524676681       -0.24039957753157
H            1.97936395229146       -0.18918156398070        0.13555954009526
H            4.97212542903503        2.50128354863864        2.05722704994394
H            6.58906695297001        1.79781044039845        2.30032079180367
H            5.15915617052273        1.06608753131818        3.06390263520061
H           -4.50877482679753        0.89046304381913        1.44214249262251
H           -3.85787671260534       -0.11286327557816        2.74748011766182
H           -3.01929509568208        1.37744587118248        2.27657334693218
H           -4.28703635834938       -0.97582416392391       -0.12402776060073
