47
 energy: -80.197268836299 gnorm: 0.000247526302 xtb: 6.5.1 (579679a)
C            4.69626799123305        2.42505255309726       -0.89181566895925
C            3.50132590067500        1.83867579550315       -0.08250639219722
C            3.76415449505686        1.97523341754954        1.40016412040772
C            4.12377319660582        0.89278794793754        2.12702750386589
F            4.44511050127011        1.08692267985867        3.44361020134821
C            4.12639336394585       -0.43363280664963        1.66856679973264
C            3.61643986292009       -0.64198508811500        0.37492567693047
C            3.27018660478851        0.38506848150614       -0.46078766884130
C            2.58973892789085        0.10640966449628       -1.77413302780333
N            1.17063706603962       -0.21859346948026       -1.53660977555041
C            0.72792723304510       -1.48683982074788       -1.47610377193921
O            1.38780728214778       -2.45966825171783       -1.89632471082021
C           -0.62557727121857       -1.65439538035809       -0.92813301841009
N           -1.27593633526147       -0.54208936059174       -0.46358183739139
C           -2.48655494441755       -0.62640350900707       -0.00930416446850
C           -3.11877390868471        0.68796395330146        0.43964463311186
C           -3.96549771052865        1.25197277757023       -0.71131791169357
C           -2.00596489608533        1.69422861813137        0.77798894781801
N           -3.96537590415897        0.49129774572526        1.61404673593069
N           -3.17125915916355       -1.81618219079666        0.01105588223317
C           -4.55151482310872       -1.92813809008435        0.48053965737831
C           -2.57954129764543       -3.03011424893402       -0.39196074282001
O           -3.20857581178428       -4.08813541695931       -0.30623616175479
C           -1.23828975945592       -2.89279314280184       -0.89780249192528
O           -0.61809225229216       -4.01005101232332       -1.33418910932078
H            5.60979885908054        1.87675708471709       -0.65891399351932
H            4.84234648798642        3.47455087022576       -0.63487233917959
H            4.50544571122663        2.35038833119317       -1.96284431001830
H            2.61836243645080        2.44329768653454       -0.35647513394360
H            3.71376512355660        2.96280853451253        1.84122557650432
H            4.41773113264145       -1.24985371522703        2.31445384815337
H            3.47379970087946       -1.66628733821529        0.03399339035600
H            3.03077625307863       -0.75002540316483       -2.29678080648967
H            2.62358585029083        0.97408145638141       -2.44108154959704
H            0.61216941556579        0.48459112530533       -1.07144890177212
H           -4.80293345000050        0.59740824170530       -0.94633612580692
H           -3.34859652295336        1.36502898527611       -1.60231025587865
H           -4.35950587740504        2.22785520296077       -0.43131526041152
H           -1.36508440961908        1.29483338386683        1.56286033192277
H           -2.45404391240244        2.62310457278149        1.12604501486325
H           -1.39717518870733        1.90069599274470       -0.10124768139111
H           -4.53496711608825        1.31372049233339        1.74907657680016
H           -3.38539321989102        0.38802388941230        2.43736734501315
H           -5.14142350868585       -1.08755096200691        0.13003498667068
H           -4.57759366229299       -1.95190202870146        1.56972614654067
H           -4.97484191728970       -2.85355805106830        0.08791233600736
H            0.28496746276800       -3.72456219768215       -1.65756189968705
