46
 energy: -86.266177704586 gnorm: 0.000494851422 xtb: 6.5.1 (579679a)
C           -5.29770175461760        0.46297532624258       -2.09301930011798
O           -3.96670360619507        0.73418074189824       -1.65547203400663
C           -3.78202906494766        1.13891555387768       -0.35427559937415
C           -3.27903849444096        2.63196171091216       -0.34660470470713
O           -4.92255527173105        1.00488838906171        0.39351345812178
C           -2.53753196123623        0.48896562007271        0.24509708375339
N           -1.55971333818863        0.14207843834872       -0.52366636058772
C           -0.44653625520476       -0.46401981990873       -0.09892591935717
C            0.65748682326538       -0.54793397085372       -1.11439039902889
C            0.41749257842628       -1.82512885901672       -1.94810252281348
C            0.61153678587790        0.68911870402447       -2.02736775187086
N            1.93692829641037       -0.58436791521838       -0.42000485716430
C            3.12178966017196       -0.74764267865041       -1.08312407804603
O            3.23036554374567       -1.07662145467672       -2.24599595324687
C            4.28139591012185       -0.49554475780074       -0.20353963546574
N            5.54018980618581       -0.56342511017967       -0.50622055406747
N            6.23202367850986       -0.21672586561655        0.61038278564089
C            5.35577362001180        0.04582939858476        1.53086472492145
C            5.60358750646416        0.47429003757578        2.92344974553740
O            4.09971263005788       -0.11330372622862        1.08053816658501
N           -0.44251944608497       -1.06177384423162        1.10087196920949
C            0.50715982112832       -2.09427940949820        1.53795945689328
C           -1.37613948450188       -0.70987592068858        2.10358890672687
O           -1.28093371093348       -1.14470813265354        3.21313559283921
C           -2.40507866177768        0.36421815716843        1.70166301769908
O           -3.06193600620712        0.94656189083247        2.52180422348748
H           -5.93842790455759        1.33729970404974       -1.94738880518299
H           -5.21909135676903        0.22888472071832       -3.15406904284136
H           -5.71529063175402       -0.38865267795383       -1.54836654064542
H           -3.02455153921914        2.95132649519884        0.65967080377181
H           -2.42660982088233        2.73168208893726       -1.01158663045045
H           -4.11995808425447        3.21376937133294       -0.71975089769835
H           -0.60805784549790       -1.82460258380169       -2.31256709858340
H            0.58358682714860       -2.71369136104871       -1.34403319635110
H            1.09921234437565       -1.83302163491670       -2.79620545369715
H            0.74524831439141        1.59201802038532       -1.43575676444448
H            1.41424360297062        0.61456992316153       -2.75911894417878
H           -0.34354042170469        0.73763888378146       -2.54622223108660
H            1.97813657133677       -0.11258886630143        0.46851918776781
H            5.23602003166197       -0.28312361328097        3.61579707310218
H            6.66990310414840        0.62320621962532        3.07861127622918
H            5.06680644690047        1.40068212816875        3.12537944713929
H           -0.07272477100121       -2.93528563422436        1.91614891627793
H            1.12841498778596       -2.40476191663322        0.70758631741914
H            1.11519528628425       -1.68211554936260        2.34184470299488
H           -4.80554074567102        1.26813277879444        1.31934641890041
