42
 energy: -83.625804868236 gnorm: 0.000455535023 xtb: 6.5.1 (579679a)
C           -4.46137092001176       -0.79960276103311       -3.23933219757891
O           -4.21109478710542       -0.39573601367206       -1.90722224579669
C           -2.88792820998497       -0.26617983216106       -1.56491351124886
O           -2.02355020984142       -0.50215606675792       -2.41342373059176
C           -2.63197466827755        0.13280034844451       -0.18872410971475
C           -3.68239544506947        0.36980776512692        0.74737501226407
O           -4.92408007462747        0.41783095337420        0.47839584122297
C           -3.24936618249325        0.52308830171188        2.16642222972094
O           -4.02507805182592        0.58281679386449        3.13368825867279
N           -1.89536232314871        0.49114204699842        2.40569772784273
C           -0.91746260439623        0.75846404354388        1.35966498623125
C           -0.74101788002137        2.29811634892968        1.22361589545170
C            0.44145189336397        0.07810848126017        1.75550099326624
C            0.18020243294984       -1.40515390214494        2.06276323582678
C            1.12279455193295        0.75539475766697        2.94887630088452
N            1.27623591262495        0.18328931041242        0.56214291303075
C            2.56792473576575       -0.24512449103973        0.48318533511893
O            3.27094545219903       -0.55383065204886        1.45931767723964
C            3.05001302958830       -0.25053227242245       -0.89025765857441
N            2.35213241120932        0.03947058009840       -1.97312653402586
N            3.19437535123227       -0.12615619615756       -3.03789327826534
C            4.33649771705717       -0.50227413449598       -2.56218509872061
C            5.57232427964533       -0.80088148853038       -3.32528649857697
O            4.33194692503488       -0.60780571254023       -1.21652737514136
N           -1.29905334676831        0.20702798350713        0.09777394829444
H           -3.99562732466657       -1.76880714294837       -3.45364653097235
H           -5.54235725471402       -0.88373928686795       -3.35523845042261
H           -4.07500366310396       -0.06403606066767       -3.95477046757350
H           -1.62810366670216        0.75634810280790        3.34019005861647
H           -1.65081052002451        2.72471135969007        0.80154459709815
H            0.09291625350937        2.51353173352736        0.55783897697209
H           -0.55817351268769        2.75676586777475        2.19317876705194
H           -0.44247039630410       -1.49591112641058        2.95199992514060
H            1.11972581467100       -1.92779821073083        2.23712798768254
H           -0.33696181796460       -1.86713353637118        1.22016860479472
H            1.53247670042855        1.72313425693751        2.66287616212075
H            1.93800540175946        0.13756414281483        3.32313169801121
H            0.40949661211993        0.90112468950282        3.75889417357813
H            0.73229482907114        0.19210551906277       -0.30486239828250
H            5.38330587115002       -0.67470341013340       -4.38855681959527
H            6.37533536637153       -0.12986685091666       -3.02033863641055
H            5.89884231804857       -1.82289923900576       -3.13506476464099
