46
 energy: -87.052847610716 gnorm: 0.000614055660 xtb: 6.5.1 (579679a)
C            5.38547036495951        1.04688900963026        3.26776239818796
O            4.33841856051644        0.70349323715859        2.35720625501182
C            4.59968737359510        0.86899443656897        1.06543805752240
O            5.67118809622877        1.28514123672426        0.65566793734309
C            3.47637841487892        0.51174263891621        0.17229751021985
N            2.32903070213404        0.05500190039174        0.74758670179176
C            1.30568842858408       -0.27567101743118        0.01765841460401
C            0.06969797673422       -0.78540427363894        0.77551502350099
C            0.19413200351795       -0.33566569448343        2.24343325013309
C            0.13818861551403       -2.32289430359720        0.74309889811252
N           -1.11363859954203       -0.16162844092936        0.18566234570511
C           -2.38121882616667       -0.99946276261995       -0.05954593591583
C           -3.14003190100171       -1.15048990072780        1.29832318978580
O           -2.18392449138651       -2.10757454878558       -0.70994582632265
C           -3.21489860352074        0.02701403897022       -0.91195829380396
N           -2.84644966030508        0.59708998240452       -2.01601201185052
N           -3.91706198023245        1.34427722815575       -2.46562142928405
C           -4.86204425275425        1.17250528592932       -1.60410085938491
C           -6.22077843760592        1.76803930818305       -1.61656354612797
O           -4.49050872628333        0.35249462619211       -0.60042010304702
N            1.34096406482732       -0.19237380494005       -1.34916039628045
C            0.20146188261455       -0.57530365295466       -2.19530819588371
C            2.44282419237372        0.30043934015409       -2.03629475138327
O            2.43931485853608        0.41579722114411       -3.25864500888676
C            3.57865336457220        0.65069695960489       -1.18838949677297
O            4.66972137473926        1.10331634437842       -1.82476473419309
H            5.65961333007612        2.09723393091568        3.14568382437680
H            4.99964486178471        0.87081765735833        4.26959092340524
H            6.26275584146371        0.42256146275353        3.08364610240045
H            0.27355760450096        0.74913773751700        2.30350657681607
H           -0.68551435694851       -0.65536738990880        2.79857528079365
H            1.07866559168919       -0.77157195145211        2.70579294007396
H           -0.69874355153033       -2.75643754749778        1.28550287750952
H            1.06602435294140       -2.63192571428378        1.22674059255322
H            0.13180510725824       -2.71627779451994       -0.27073644147115
H           -1.37554636828232        0.63284054458450        0.76004089702725
H           -3.27362990147238       -0.18888579055824        1.78980116879764
H           -2.58486074546837       -1.81864850336501        1.95241694865397
H           -4.11606816312984       -1.59099191115326        1.09914587274890
H           -6.35025162617937        2.36480876621742       -2.51645041851833
H           -6.97754483680707        0.98421498526553       -1.58839361821174
H           -6.35939862761042        2.40215019907445       -0.74096303283323
H            0.57303213937835       -0.79022230652620       -3.19723607616378
H           -0.29557321542873       -1.45794095587202       -1.79908871435523
H           -0.51781806689412        0.24569435317601       -2.23929301755859
H            5.37958583512201        1.31234483388218       -1.18050807882941
