16
 energy: -33.392142960857 gnorm: 0.000846715013 xtb: 6.5.1 (579679a)
C            2.70792468148747       -0.15680882829912       -0.16832380504977
C            1.30908862183491       -0.02479479368270        0.20429081263707
N            0.84248175174974        0.17283851285415        1.48534353333907
N           -0.41390105998512        0.22743644279808        1.43427061575956
C           -0.85153567959934        0.08718970823477        0.09520407816370
C           -1.63126782394079        1.42690378619649       -0.27733405015873
C           -1.81752334387731       -1.07764843376149       -0.13705637273756
O           -2.61362413930982        1.68199996382110        0.33054616093041
Cl          -0.97432584731135        2.31576732872746       -1.53745719935375
O            0.34045572557009       -0.07225052811665       -0.63371538530782
H            3.23240384656686        0.77086460668957        0.08114147149792
H            2.81259285109602       -0.37503339018968       -1.22912594613052
H            3.16884362988810       -0.94012489451233        0.43952492649984
H           -2.71459189548429       -0.90962532834489        0.45586207595585
H           -1.32860426046300       -1.99989796234126        0.16903461192378
H           -2.06841605822236       -1.12681719007346       -1.19382852796926
