42
 energy: -83.656558522462 gnorm: 0.000802939065 xtb: 6.5.1 (579679a)
C            4.80828642123823       -1.28749194244816        3.30903976606734
O            4.58211193530770       -0.59005036662332        2.09005654524189
C            3.31873103144660       -0.60231994356388        1.62072868103627
O            2.42801104898632       -1.18111552016336        2.21324271993873
C            3.15043179568089        0.13662359801339        0.35120765908502
N            1.86828124318175        0.16361502550353       -0.13099087791253
C            1.65007108658016        0.79463745406709       -1.26228562903124
C            0.22466214235923        0.84171409971952       -1.80934783532445
C            0.22994242831528        0.23249308852563       -3.22145395351396
C           -0.20807698304414        2.31992984365620       -1.86985797498823
N           -0.64107838328301        0.06805184173734       -0.93355692486190
C           -2.02901023321319        0.08720205942079       -1.06058349627457
O           -2.58938327100903        0.43261487055914       -2.12242438935643
C           -2.68205860857623       -0.37540422372743        0.11228767688740
N           -2.08496547981905       -0.71130482258723        1.24380101820077
N           -2.95059362042859       -1.07624964732080        2.14924030289011
C           -4.28664304930733       -0.96624298555108        1.54368466292731
C           -4.96947812434656       -2.34611378775257        1.53203485348306
C           -5.13623611397169        0.04783630238510        2.33105484932649
O           -4.08139482192547       -0.50760742226620        0.21592585492851
N            2.55443407132580        1.43087658097216       -2.01669632360495
C            3.83923986640327        1.45255973811320       -1.60662246658812
O            4.77125380522537        2.01366645376701       -2.22397284223051
C            4.14731521998297        0.76373443411069       -0.35036225089880
O            5.45082894518956        0.81057768211710        0.01498910941721
H            4.58294103924653       -2.35192309776140        3.19101851114594
H            4.18432048445071       -0.87759627911422        4.10876674885331
H            5.86011034591569       -1.15765393813293        3.55633121760064
H            0.49961472563034       -0.82289077160404       -3.16855066716798
H            0.96257491795119        0.75351006305443       -3.83769105080697
H           -0.75249020808183        0.32325292606658       -3.68280355519231
H            0.52541738710703        2.88345525236868       -2.44610310046325
H           -0.25962999032628        2.73644619592752       -0.86350989700024
H           -1.18312454720909        2.41766526319461       -2.34523728180282
H           -0.28990964145891       -0.02866408630063        0.01730883426254
H           -5.07354774721222       -2.71192830096093        2.55136415465582
H           -4.35911578746652       -3.04638067668978        0.96378890299531
H           -5.95355799118004       -2.27803446689101        1.07182564946431
H           -4.63182369051813        1.01297934791945        2.33842147171520
H           -5.26282235338781       -0.29482962193836        3.35581148872828
H           -6.11415268696743        0.16172254827964        1.86647773540743
H            5.90051239120518        1.32864023191288       -0.68652889722943
