42
 energy: -82.992884601339 gnorm: 0.000543176390 xtb: 6.5.1 (579679a)
C           -5.04834080486872        3.00344085059614        0.25698687186900
O           -4.59975224451454        1.64960788930858        0.19471751722544
C           -3.27673754542544        1.46515107817718        0.20083245717896
O           -2.50245670906271        2.40680945202524        0.26706999237000
C           -2.88573226524908        0.05355976362980        0.07393592839865
C           -3.77507464248983       -0.89975314320370       -0.49657177172821
O           -4.95924628789958       -0.71149984200291       -0.77622685198281
C           -3.17021116434527       -2.24395127044150       -0.81374769240870
O           -3.77087964684679       -3.19588118270316       -1.26587643543260
N           -1.80373479066027       -2.34267544347321       -0.59455218999538
C           -1.01118628412935       -1.42816775035921        0.00956711846718
C            0.43975814028743       -1.84314959794866        0.23525283483497
C            0.58215222818426       -2.43378535189609        1.64752564682922
C            0.89613161808884       -2.88875591961935       -0.79579012138390
N            1.27487284623908       -0.65690097009773        0.03567021915596
C            2.59065244066826       -0.59984888703723        0.37731825876435
O            3.18598461881612       -1.40847640765199        1.05901607833364
C            3.20425796682121        0.63191871216100       -0.17481533344948
N            2.60966257642727        1.50793784716868       -0.92885255658908
N            3.52915149881843        2.47001783100421       -1.21209501989677
C            4.62833688054411        2.11967607760949       -0.61353795764594
C            5.92510919707453        2.83076659749000       -0.61151380899535
O            4.48510131240468        0.96706579007843        0.05649503858468
N           -1.55517586022218       -0.28792547180045        0.38129509688055
C           -0.81572151174007        0.64289200512346        1.24711170144310
H           -4.68874780803637        3.47843728260752        1.17297739655903
H           -4.68145264726891        3.56524653377721       -0.60564531142797
H           -6.13661127929098        2.97265446916635        0.25177674307275
H           -1.40879477841667       -3.23260967080602       -0.85674123688761
H           -0.22358453671389       -3.14751816166396        1.81127379034269
H            1.53393538149689       -2.95257214699683        1.73672274240974
H            0.53383202412805       -1.66342250890866        2.41328921895766
H            1.97415181944015       -3.00976134505126       -0.70043764800154
H            0.43281385792762       -3.85540611020430       -0.60872445591218
H            0.66813434523199       -2.55975086418243       -1.80746418148580
H            0.98352353835990       -0.02719169806114       -0.69975055126267
H            6.21277985850545        3.07587602651346        0.41063118888883
H            5.84412669719621        3.74253755262529       -1.19760332406598
H            6.69936163465070        2.19117413039205       -1.03468733109568
H           -0.36469728835459        1.42997813735675        0.64617458274127
H           -0.04599118189514        0.10732132587324        1.78818731507578
H           -1.50970220387794        1.07693439142586        1.96236604126175
