33
 energy: -57.876360540083 gnorm: 0.000185041153 xtb: 6.5.1 (579679a)
C           -1.69348655778457       -0.22948412592548       -2.01420125489494
N           -1.37418490185473        0.99159809829545       -1.23604670541994
C           -1.68379293764138        0.92813113335535        0.23597250492340
C           -1.48224415900368        2.34750548861248        0.77858150386573
C           -3.11282411493949        0.44667218411799        0.45975902769535
C           -0.62347828172681        0.02228333652573        0.82007600594808
N            0.49307732322341       -0.07799322985705        0.18188999874252
C            1.49851988422597       -0.84833374003704        0.71901171425489
C            2.77365914629966       -0.92376109098532       -0.03270536056620
O            3.72295675831996       -1.58075444100069        0.35339566739009
O            2.78261289280200       -0.21013166359734       -1.14644892072392
C            4.00006347629740       -0.22217597285157       -1.90720567357070
C            1.34206384268998       -1.51308951656115        1.91093425118168
O            2.27941620785671       -2.27075652708661        2.46697622231386
C            0.07779563196003       -1.40289001802678        2.65346549247575
O           -0.18857933962764       -1.93153763367114        3.71193422853443
N           -0.84929813116139       -0.58911779903076        2.01011155910985
H           -1.28994086358429       -0.09104572412146       -3.01403427724947
H           -1.22186800233679       -1.08033061145799       -1.52919565817733
H           -2.77095557672046       -0.35424465391619       -2.05809824943288
H           -1.84992838716737        1.78687064871337       -1.65137600624435
H           -0.36068581996231        1.14134083379678       -1.29995399590529
H           -2.21307167995914        3.02307805475799        0.33774086954164
H           -0.47835431023589        2.69842327256921        0.54398070537469
H           -1.61177227553601        2.34177648836227        1.85954937988586
H           -3.79491868399372        1.01010117605311       -0.17436589453665
H           -3.21167116609198       -0.61492678008613        0.24208847533118
H           -3.39190185711754        0.61993425971004        1.49795232829412
H            4.80910801951741        0.21248370381897       -1.31563225118871
H            3.81315666140726        0.37659797284781       -2.79571643496553
H            4.25675088230156       -1.24780439881809       -2.18175310129376
H            3.08895340926301       -2.28412452593314        1.90211843064256
H           -1.73517408971994       -0.47429519857161        2.47913941866794
