47
 energy: -79.492831607073 gnorm: 0.000577230087 xtb: 6.5.1 (579679a)
C           -4.45470025538395        0.96493288743413        0.86695477985290
N           -3.01996729194051        0.76631738817857        0.64509985748705
C           -2.49710831122755       -0.20188020064142       -0.11144181231158
C           -3.23097050991969       -0.99133843389680       -1.15516825756836
C           -2.22444601945028       -1.47730898803138       -2.21585014222030
C           -3.86858886797936       -2.20349001745211       -0.44701418494114
N           -4.27103022956625       -0.19054616482573       -1.76606582521776
N           -1.24649853612493       -0.62230338162562        0.15199716172803
C           -0.36761078612035        0.07024071762341        0.79622139505223
C            0.87332863272970       -0.69374689672881        1.21619708014923
O            0.90144491825661       -1.90618427865247        1.08942505291691
N            1.87706268587376        0.04102954110486        1.70625397227974
C            3.12071671414698       -0.58576286730410        2.14675400794835
C            4.19633050548723       -0.44120746617951        1.09161173214223
C            5.36129507164277        0.26940446832628        1.36559039953438
C            6.34965463425815        0.40083914682424        0.39920515329015
C            6.14127171728312       -0.18479595920490       -0.83611842900796
F            7.08861502184816       -0.05855560715135       -1.77623307798876
C            4.99406852983954       -0.89674996930864       -1.14088471907803
C            4.01936747935565       -1.02320518317224       -0.16260411903896
C           -0.67855426324008        1.51187383493330        1.02984459257220
O            0.09535277505334        2.06234543530542        2.04479911274105
C           -2.16460629527972        1.63390888801180        1.37223488686837
C           -0.49976457393804        2.30676523867230       -0.29510966663133
O           -2.59768941760166        2.47589775907445        2.10204079312177
H           -4.99418937186545        0.66343314345645       -0.02896108526162
H           -4.76121988691976        0.35575690656588        1.71684235304237
H           -4.62190996035293        2.01788835758385        1.08575642305504
H           -2.76513052213445       -2.02661368764578       -2.98358711496170
H           -1.72623500131879       -0.62473985400218       -2.67326590817533
H           -1.47767009280796       -2.12967567064204       -1.76607417580294
H           -4.62171724982326       -1.86909874092073        0.26356994033603
H           -4.34195097649958       -2.83340507262409       -1.19787004343142
H           -3.10583503599906       -2.77759372307185        0.07663176185914
H           -4.84414898467154       -0.76998691148725       -2.36286836405039
H           -3.86587674236936        0.54729287276736       -2.32352052928952
H            1.80524397332818        1.04265632166954        1.77888404007508
H            3.42593356644618       -0.10352125528173        3.07784938231425
H            2.91015125794028       -1.64306260682819        2.33665502342777
H            5.50194634707548        0.72435729486493        2.33882108507944
H            7.26001384935274        0.95101069011641        0.59857492226897
H            4.86756815503609       -1.33822964691479       -2.12080765863138
H            3.11202488919879       -1.57551664482246       -0.37557077705364
H           -0.30372778838344        2.87771268832030        2.38393793821306
H           -1.04415532507549        1.82531849102700       -1.10346655928765
H            0.56199582067655        2.33933018643478       -0.52888967472933
H           -0.86808724883778        3.32020697012190       -0.15268972267358
