33
 energy: -57.868054752607 gnorm: 0.000472404955 xtb: 6.5.1 (579679a)
C            4.38746399657809       -1.27660522467640        1.22610382138650
O            3.08391808136044       -0.85127788189710        0.80393861550603
C            3.03654839096197        0.11299685085157       -0.09938855505662
O            4.02545485310861        0.63527974249658       -0.58079742575508
C            1.66194958327485        0.51163193244968       -0.48638153794138
C            1.44552660050992        1.48959080440948       -1.42282931248421
O            2.40953630397197        2.15206847550563       -2.05221908121172
C            0.07573085986471        1.86482330794695       -1.77608078092105
O           -0.22036561791808        2.73211664046631       -2.57646861763603
N           -0.91643560048238        1.12504306235037       -1.11055999604480
C           -2.28157371988795        1.50029183288602       -1.47747647927268
C           -0.60538140963320        0.18431369917512       -0.16100956644234
C           -1.63547431903586       -0.64704617671435        0.59655985661828
C           -0.96096094468802       -1.31093079666174        1.80063497001297
C           -2.28749994332645       -1.71244667111885       -0.28593748004847
N           -2.72522281706852        0.22403275893886        1.18146341520437
N            0.61670193338968       -0.11513660040643        0.13016557024799
H            4.23684292625609       -2.14450592653194        1.86465207541745
H            4.99423086902272       -1.53940622961563        0.35655702292155
H            4.87472308776239       -0.47298191377689        1.78262245423470
H            3.29461969548317        1.84176922281845       -1.74620265430058
H           -2.33352713884416        1.02956587247535        1.65826380787429
H           -2.92021619364086        0.62559606970961       -1.51157112471358
H           -2.24975963598044        1.95550168721075       -2.46819017979030
H           -2.66441358625229        2.22865940024123       -0.76442674804286
H           -1.69735992006846       -1.87232192876987        2.37250397418015
H           -0.18666255197230       -1.99248194706909        1.45255779897172
H           -0.50230551402511       -0.55876846671554        2.43985842790625
H           -2.97427613606774       -2.31132061915688        0.30964360477871
H           -1.50786201184529       -2.36126195823365       -0.68393559924513
H           -2.83612876072038       -1.27626157783822       -1.11674817010561
H           -3.38597952806287        0.54503038983799        0.48364768586268
H           -3.25184383202358       -0.31556083059366        1.86105020788283
