47
 energy: -80.186211559941 gnorm: 0.000788765174 xtb: 6.5.1 (579679a)
C            6.06104604420355        0.70392198373959        1.68054148402205
C            6.01174883148373        0.78298701516144        0.12680101987471
C            4.66974273546913        1.29183294116547       -0.35499258111851
C            3.77269685269028        0.51029367761417       -1.02933983099010
C            2.42779001191062        1.08484730545012       -1.41455703624738
N            1.35991232302680        0.39248542201583       -0.68767396701452
C            0.09455629643632        0.85771498952430       -0.74115175546441
O           -0.18166480485432        1.92087757967090       -1.30556641307991
C           -0.94966256071167        0.04135580809752       -0.06337799692054
N           -2.22600670415245        0.50960683408346       -0.24435756603779
C           -3.25770186127098       -0.05908131416703        0.28734152025627
C           -4.61629672705780        0.53974604570200       -0.06451822993935
C           -4.40546605299015        1.86099084636265       -0.82233663388509
C           -5.39419640884141       -0.43289561267841       -0.96220942365862
N           -5.39232808344843        0.79193121240107        1.15118312633683
N           -3.13651106407864       -1.17621019454303        1.08599289900852
C           -4.24866034532728       -1.86943340005587        1.73112051576607
C           -1.88811154537264       -1.75263856479641        1.31127857339714
O           -1.76306808640142       -2.77260485531919        2.00553959142675
C           -0.77187706475105       -1.09298776030280        0.70159256707468
O            0.43908056673447       -1.66794656344030        0.94578515785608
C            4.05946528232278       -0.81465377421658       -1.41977924670396
C            5.35417085143426       -1.32091964441321       -1.14829620132118
C            6.25042287303100       -0.56536488014493       -0.48118895819024
F            7.52362749304424       -1.05593088375265       -0.27327486315386
H            5.89963805106695        1.69253595461666        2.11019458647102
H            5.28451314409860        0.03112759234254        2.04516307447102
H            7.03295413954059        0.33167096615595        2.00590900393791
H            6.81915433713645        1.47836248942044       -0.17089831172714
H            4.42818598982970        2.31817514510413       -0.09556054084950
H            2.36567984281879        2.15493167925326       -1.17969556784792
H            2.25543322897052        0.97155271454392       -2.49544425802994
H            1.56267683179721       -0.53398169221250       -0.34619839950742
H           -3.87160486586181        1.68315080380192       -1.75562842492680
H           -5.37289563659291        2.30740817146596       -1.04481957966869
H           -3.82674645278111        2.55555388748967       -0.21450524876886
H           -5.64539082869134       -1.34670455091289       -0.42818530858378
H           -6.32018339600380        0.03569972201268       -1.29270717469353
H           -4.79951102901989       -0.68952370367755       -1.83871576573602
H           -6.33182252894251        1.05532568726864        0.89211867660183
H           -4.98775116776640        1.56482378294570        1.66371283739782
H           -3.90769548304134       -2.23408903224525        2.70135566642747
H           -5.08494207982281       -1.19053182395622        1.87182315531416
H           -4.55464063159933       -2.72309705269339        1.12396784274807
H            0.28016231274133       -2.45753210236711        1.49474024621264
H            3.34131057774226       -1.40794227234321       -1.97067870183870
H            5.64076579184977       -2.30484157917238       -1.50606155869730
