43
 energy: -83.129816668720 gnorm: 0.000459009163 xtb: 6.5.1 (579679a)
C           -5.81430357977907        2.54993393468815       -0.31831049815706
C           -5.40868989026871        1.27356110225128        0.30849824833754
N           -6.13801576741709        0.46094963117829        1.00760157346856
N           -5.33510787041417       -0.57899093202208        1.36614876979220
C           -4.16468273141929       -0.33876308709045        0.86438493728001
C           -2.93900868580349       -1.16402811144863        0.97460405903136
O           -2.91649359356118       -2.22478172616441        1.56988778579091
N           -1.88652109996177       -0.60487903724351        0.32275195364928
C           -0.53174965297313       -1.15162958006316        0.40560443517278
C           -0.02435703384468       -1.07863513521264        1.84916293105947
C           -0.50640395171505       -2.59546801492318       -0.12306810283840
C            0.34928902748277       -0.32858421991971       -0.50475001595848
N            1.57359850335364       -0.09846246348784       -0.16732322874285
C            2.39434189528630        0.61167919196239       -1.01371798082094
C            3.74067560590782        0.88764615812747       -0.58165146327865
O            4.59883950084724        1.55427043208531       -1.04406778163479
O            4.04876091035594        0.23639510173107        0.75240745222344
C            5.17971133265450        0.86564325769459        1.42145120533378
C            4.12155186413264       -1.21982388786407        0.73523193176504
C            1.92749450248301        1.08132102688359       -2.22332298866605
O            2.65819624789178        1.77267635359608       -3.07137134538767
C            0.53888295613939        0.80043120525064       -2.62690489155615
O            0.08268421283003        1.17370846951530       -3.68800381883480
N           -0.17222194275248        0.08441347683109       -1.69801302188903
O           -4.14762486144414        0.82708832983753        0.18118604333499
H           -6.83455087303091        2.79412463785091       -0.03086915672330
H           -5.75112824742528        2.46466336147530       -1.40335576685633
H           -5.14015173948046        3.34620969010114       -0.00499812324760
H           -1.98365552648251        0.34978179423068        0.01996221885216
H           -0.65551783965596       -1.68980695009586        2.49227968939693
H           -0.04157988994542       -0.04753433941810        2.19752613075320
H            0.99784637423864       -1.44848891150034        1.89361354942778
H            0.52518904221115       -2.93910819753882       -0.17205676313336
H           -1.06801586134893       -3.24818425585005        0.54263917876222
H           -0.94268786127888       -2.63266941931731       -1.11949282409734
H            5.20552123611661        0.45927012586108        2.42893237509692
H            6.09811696133309        0.64428260516131        0.87793658466901
H            4.97939521816577        1.93448345860624        1.43659853356033
H            4.19620604405703       -1.53645663499989        1.77285128208468
H            4.99106253548058       -1.53696553823054        0.15980317407530
H            3.19458519338720       -1.57567829973331        0.29408735401968
H            2.13218821355741        2.00069461749511       -3.86397300275876
H           -1.13166587790983       -0.13429022030049       -1.93164262236056
