42
 energy: -82.980724288728 gnorm: 0.000686769024 xtb: 6.5.1 (579679a)
C           -4.78504658483248        3.44568820624158        0.53893285861234
O           -3.77547924923843        2.49693845274567        0.19493829774197
C           -4.14088925207554        1.20044274587240        0.23934910204285
O           -5.25877244401844        0.84570043519018        0.55885291810979
C           -3.05100358751899        0.30981317794096       -0.12187010227139
C           -3.12827175162993       -1.07028272618101       -0.20273192055670
O           -3.90071350221870       -1.96870069811338       -0.03681870787703
C           -1.16724695021479       -2.34512634097043        0.48853873463815
C           -0.86927883556509       -1.61805257475829        1.75419926060269
O           -1.30218033832360       -3.51648821523418        0.34072916984396
N           -1.60782458587124       -1.46431811385554       -0.63826895054244
C           -1.00360180376386       -0.13854629145004       -0.82738162211583
C            0.31045446232924        0.09308737086619       -1.53311350372249
C            0.48445688623555       -0.87887585924425       -2.70694459454217
C            0.32272825632199        1.54088987732031       -2.03162611073573
N            1.45396001821370       -0.04184031119731       -0.61665118162797
C            1.78853470968749       -1.20211407275292       -0.03143207161830
O            1.09677619561493       -2.21435163402477       -0.05607564510593
C            3.07471957047564       -1.15061554083423        0.69578800460985
N            3.63785648931517       -2.09667285140610        1.38127043784493
N            4.80426911872668       -1.58949848056471        1.86522328615090
C            4.88338188962125       -0.36424881594270        1.44592492273897
C            5.96119519112004        0.61438500632628        1.70276132511408
O            3.81940727041039       -0.02382713365516        0.69992121405635
N           -1.81466084837906        0.79706849927839       -0.52854254833890
H           -5.13843761833824        3.27290022578429        1.55931477061009
H           -4.32589037506620        4.42966009723107        0.46335545195989
H           -5.62938510197353        3.37067298039622       -0.15201284167516
H           -0.13669052378533       -2.18287619360924        2.32532072001275
H           -0.51345555301671       -0.60914799183710        1.57110859089593
H           -1.79695228314352       -1.57407426597297        2.32678025519462
H           -1.63927999728497       -2.03087532884470       -1.48241962229748
H           -0.33016499422068       -0.74237520780549       -3.41569107425251
H            1.42766327856539       -0.67103365917804       -3.20859432403141
H            0.49019997703548       -1.91103076256098       -2.36139063196270
H            1.26212136201349        1.74748257385775       -2.53995185977460
H           -0.49987905954672        1.69787338850149       -2.72727701449224
H            0.20881783818705        2.22682458102664       -1.19358629606414
H            2.10797394672600        0.72285962522416       -0.58493694627805
H            5.55359003788661        1.49119924151062        2.20570021866201
H            6.72934788003234        0.15973934059040        2.32382473266144
H            6.39765086151095        0.94174724409590        0.75941329777377
