16
 energy: -34.153900172846 gnorm: 0.000733456614 xtb: 6.5.1 (579679a)
C            2.58400146456143        0.41292809802120       -0.47918899765222
C            1.21977761605587        0.16197490879968        0.06225295588173
N            0.92078988009898        0.05825090130530        1.29365410868228
N           -0.47558334221504       -0.20326454402064        1.38283402640452
C           -0.95066847713366       -0.19245686827905       -0.03975512737375
C           -1.82690480618983       -1.33097162870884       -0.49925954615004
C           -1.39403016406493        0.86460618175098        0.90504619735996
O           -2.50970352285749        1.05943791896060        1.39953274377013
Cl          -0.42423087286650        2.56378579782147        0.54464617447847
O            0.20398416743128        0.00633138581267       -0.82907599876950
H            3.24760663886061       -0.40858102873112       -0.21208697459602
H            2.99318494852677        1.33145047375824       -0.06033154600580
H            2.54217875972590        0.49852642084977       -1.56207000418560
H           -2.64194067999686       -1.46097425491305        0.21008882396994
H           -2.23933021420773       -1.10857453409147       -1.48191818376756
H           -1.24913239572877       -2.25246922833571       -0.56086365204656
