47
 energy: -80.211716803590 gnorm: 0.000409189793 xtb: 6.5.1 (579679a)
C           -4.12283323855081       -0.65034179740282       -1.14948164670188
N           -2.80410809636835       -0.90676871053905       -0.57985784188038
C           -2.43178397286578       -2.33807618953387       -0.61167503498712
O           -3.28265107537721       -3.11911124421286       -1.12761031558806
C           -1.23196635055503       -2.61951406188649       -0.03708164314935
O           -0.76482377370282       -3.95702823119709        0.04265501291147
C           -0.30555761644806       -1.58148466822657        0.55021119626371
C            0.14884068619593       -1.95767510995145        1.97769971970085
C            0.93307641734206       -1.57054936475993       -0.36111907037404
O            1.68333105503717       -2.54174753680363       -0.46446923721497
N            1.05175927338572       -0.47463644288395       -1.15096770429138
C            2.25246351388136       -0.27357546224783       -1.94918698356432
C            3.36375598887868        0.29675757700778       -1.09374487571233
C            4.21589040781941       -0.55416178584905       -0.39234765216033
C            5.22015018231795       -0.03941218641058        0.41510635707824
C            5.34690192967690        1.33492225950538        0.50793460435166
F            6.32039805283316        1.84244672887692        1.28618948018568
C            4.51527288196116        2.20903408553999       -0.16727377000743
C            3.51716895032587        1.67565563887000       -0.97162805605549
N           -0.88818487565025       -0.25125700690148        0.58984739087475
C           -2.03771468133840        0.00611182826165        0.06085108410556
C           -2.49762213588962        1.46056055231361        0.25169040069186
C           -1.33588241696294        2.29901790772381        0.81267728961770
C           -3.66435344198218        1.50901456068633        1.24782071796906
N           -2.92337684443230        2.04807184248237       -1.02237707603743
H           -4.25343206863323        0.40389833911965       -1.37683645459753
H           -4.22317177595312       -1.21982634564401       -2.07809691693627
H           -4.90988569531764       -0.97745594980711       -0.46146641590684
H            0.13987998887939       -3.98919636528692       -0.31131694102072
H            0.68262870340907       -2.90736673122203        1.95816965611285
H           -0.72129646125102       -2.04719184882248        2.62775498356834
H            0.80597373219699       -1.18388801859423        2.37351606933430
H            0.57859319370983        0.36382812696537       -0.83322286535386
H            2.01022937217895        0.40983819883978       -2.76667541039129
H            2.54942169554679       -1.24151154599006       -2.36575779621380
H            4.09148723683810       -1.62845961273569       -0.47709455521104
H            5.89449919050207       -0.68659917244206        0.96088060011473
H            4.64748975381317        3.27808065316158       -0.06750805207567
H            2.85487926782928        2.34304777317888       -1.51065047951527
H           -1.64659459306537        3.33887498096528        0.90446606706005
H           -1.03096666978223        1.92962262289902        1.79137907515406
H           -0.47951580886067        2.24616957113422        0.14095276653903
H           -4.53914083924130        0.98769787576356        0.86280782680943
H           -3.94096740107625        2.54481611251603        1.44261935159047
H           -3.36690491318067        1.04642060742118        2.18920913686532
H           -3.30847421425814        2.96441032887924       -0.84307616617909
H           -2.11288251381289        2.17853721722673       -1.61365782576463
