16
 energy: -33.394960394003 gnorm: 0.000250551246 xtb: 6.5.1 (579679a)
C            3.89902925032773        0.31948531577195       -0.54464145050421
Cl           2.48440029536277       -0.15724736906257        0.43631968663893
C            1.08622388852555        0.56533822276053       -0.52168511116010
O            1.34151033440953        1.13656517536292       -1.52055837344309
C           -0.14336959297517        0.28530187299425        0.14971737513162
N           -0.31996265195830       -0.37960959093712        1.26823774867519
N           -1.62953625679908       -0.40049781218568        1.50547922065848
C           -2.21274466954194        0.25481628702166        0.52211540120638
C           -3.65165621380165        0.51377958997870        0.34589887180749
O           -1.32212175965181        0.70426436048847       -0.35355324022706
H            4.38407904649005        1.16437049100722       -0.06400949858798
H            4.55966030349146       -0.54113870640376       -0.58973511415958
H            3.55215788560796        0.59174856567691       -1.54027148721248
H           -4.23125867374127       -0.17896667245813        0.95180599186105
H           -3.92016749221681        0.41937227393070       -0.70528986881873
H           -3.87624269352034        1.53510899604939        0.66016984814075
