46
 energy: -86.306922170502 gnorm: 0.000497525110 xtb: 6.5.1 (579679a)
C           -4.43480057528323        2.06244130624431       -1.19182143893935
O           -3.87825131471896        0.71213924402886       -1.05102458924366
C           -4.64678102687572       -0.39297791912793       -1.65220311973581
C           -4.07553150551776       -1.71230175615729       -1.33866022521037
O           -5.57880765887769       -0.08290367282027       -2.29806847137763
C           -2.82300571440122        0.52299145931181       -0.09830666674732
N           -1.73887594151265       -0.09874846116956       -0.58702164576514
C           -0.70623542027521       -0.30267381287067        0.18794139942477
C            0.45080366339657       -1.06298565993574       -0.44344136579161
C            0.22946657355551       -1.17993835788036       -1.95801491604584
C            0.52298840956902       -2.46571553687878        0.17976793929723
N            1.68004253309065       -0.29980986356305       -0.21464774886151
C            2.90454811265774       -0.75934262913182       -0.59232752521467
O            3.15071419127014       -1.88837356580555       -0.96490582180232
C            3.92241803774459        0.30892514493362       -0.45979009883679
N            3.70830298346152        1.53056301275098       -0.06987221937125
N            4.90740639388263        2.17156233777988       -0.11250739794528
C            5.77893356912406        1.30079999079861       -0.52958637036520
C            7.22620304433445        1.50660711169721       -0.75790064512064
O            5.21606254349036        0.10765099936765       -0.76548868449392
N           -0.71027511906658        0.10309665603352        1.48746867497024
C            0.38404944385164       -0.11118647480212        2.44461986744521
C           -1.80409372931172        0.74698396823474        2.06530554295356
O           -1.81059971881211        1.09637283487121        3.23222923058630
C           -2.93593966843690        0.96347127197343        1.17811086661045
O           -4.01694528053508        1.58430355304047        1.66273702967971
H           -4.84223442960150        2.12995700257528       -2.19847690114837
H           -3.60915161811395        2.75400213488022       -1.05278081061238
H           -5.20579914969820        2.20291326712734       -0.43576609668959
H           -4.69569974582678       -2.48131381446184       -1.79472447037249
H           -4.02768170184580       -1.85208224676267       -0.25958885290955
H           -3.05821581372144       -1.76813451073379       -1.72624224158903
H           -0.67846951296042       -1.74504865534699       -2.15757930247799
H            0.13609066621429       -0.19058324770279       -2.40165576556818
H            1.07578290892652       -1.69883791024564       -2.40542646604294
H           -0.46994028289905       -2.91152807667189        0.15696650220755
H            1.20374790452377       -3.09217501732846       -0.39343484945948
H            0.86775882741788       -2.42426232734124        1.20962869333845
H            1.58182860306605        0.69954046892305       -0.11157062027002
H            7.42985216589329        1.54468404126610       -1.82888145184931
H            7.79104479095439        0.67682298584611       -0.33534861835047
H            7.54118376214209        2.44198530411013       -0.30138320875293
H            0.54432858095243        0.82319229143334        2.98216744722221
H            1.29065048910711       -0.40400454149572        1.92974441428642
H            0.07679819557719       -0.88220145694676        3.15091921145717
H           -3.87366846592404        1.81611812795852        2.59947078748232
