38
 energy: -79.626868741656 gnorm: 0.000146298732 xtb: 6.5.1 (579679a)
C           -5.70905711863008        0.18486809305202        1.72027510586353
O           -4.41073460344731       -0.07593522104295        1.20832959450604
C           -4.36234089345188       -0.50581086026253       -0.09169665503411
O           -5.39345860785731       -0.63347405565765       -0.73433745848003
C           -3.00649214723258       -0.76743825781768       -0.54140522866921
N           -2.01586641612154       -0.52673602010095        0.39489366472148
C           -0.78821430633673       -0.73556972341725        0.10353061440581
C            0.30676171581161       -0.51147602308788        1.12600333700195
C            0.77980862508053       -1.86136550326308        1.67437042526890
C           -0.20040718958534        0.38625915747556        2.25750014614856
N            1.45865951386088        0.11518933909912        0.46330762819536
C            1.36150210201095        1.27299402509923       -0.21889640198572
O            0.32828809982509        1.89308139303760       -0.41034869100650
C            2.66597752527974        1.72927122383625       -0.76817972590127
N            2.89129594772121        2.77250179548994       -1.50480259856004
N            4.22499040541223        2.77147436374877       -1.79148267988848
C            4.72985483217907        1.72778492056830       -1.21255246977976
C            6.13793991694755        1.27632538138403       -1.22216583075642
O            3.79740286080650        1.02450701489357       -0.54879575293015
N           -0.39551785044825       -1.22116292435073       -1.12719505688180
C           -1.26529395915470       -1.49321343809589       -2.15073254723915
O           -0.83589466470350       -1.92366600498777       -3.21912938375701
C           -2.72688702542480       -1.23447418241513       -1.85381788949239
O           -3.56386287760607       -1.44872805387443       -2.74930012294721
H           -6.33667573979891       -0.71060097282514        1.66349189812399
H           -6.19458175825650        0.99172396019941        1.16102093356327
H           -5.58781598771424        0.48169051842078        2.76117770626679
H           -0.05150521900938       -2.37341023115799        2.15704266665435
H            1.15703159750813       -2.48511820891178        0.86583633897532
H            1.57355998223529       -1.71319853617163        2.40396907240853
H            0.59342155565038        0.55546613198435        2.98161971297520
H           -1.04082266890516       -0.10102395003759        2.75025890955632
H           -0.53492385805526        1.34348381284045        1.85870535917161
H            2.36767405299558       -0.27474997927730        0.63430001908290
H            6.52036706457271        1.22954626476446       -0.20307089451387
H            6.74052846790941        1.96663517217179       -1.80709904826357
H            6.20492986579122        0.27685035265405       -1.65130188583000
H            0.58035876013172       -1.40250177396003       -1.29090481097702
