46
 energy: -87.037145892005 gnorm: 0.000539089827 xtb: 6.5.1 (579679a)
C           -6.04268675882145        2.83764717779872        0.91773998806306
O           -5.25684696785206        1.65442258721713        0.81712757780598
C           -4.06526334012747        1.78482019081525        0.19609569354463
O           -3.68663415102802        2.85441252338491       -0.25331156889318
C           -3.29821111640739        0.53344560285085        0.12167935016954
N           -2.08564715067001        0.64885245929818       -0.50854841921728
C           -1.28722062845706       -0.35698369747261       -0.66258249563535
C           -0.00310640554984       -0.08980216628850       -1.44854685391426
C            0.13010746639885        1.42669625305892       -1.67905254402069
C           -0.11439885038975       -0.80136125870696       -2.80815335784730
N            1.13003375308530       -0.59392626360165       -0.66670132435273
C            2.46423202403687       -0.30461693790098       -1.13867022782781
O            2.71013302706694       -0.15648601776401       -2.36986888581995
C            3.39690311665852       -0.19413213731839       -0.13586415312699
O            3.14432915786666       -0.43150263972010        1.23000321571607
C            4.35839928927177       -0.41375066632620        1.80607162178319
C            4.44952013532047       -0.61039728653056        3.27716587572631
N            5.35311227761397       -0.22562698613008        1.02547719252044
N            4.82960494425846       -0.13989110102255       -0.29677933913193
C            5.33283854299626        1.06654028452981       -0.96515988681376
N           -1.61174058591651       -1.61145504925269       -0.19216072151512
C           -0.78385368963328       -2.80930272670817       -0.33397197253696
C           -2.82795705966225       -1.84278972985097        0.44111877780597
O           -3.14570100728916       -2.97158393735233        0.84136600950114
C           -3.68717255018078       -0.70345270870557        0.59978283602420
O           -4.86558001469181       -0.94416560337232        1.22157652220684
H           -6.96930078842403        2.55937099064796        1.41698937718130
H           -6.25991662853806        3.23999693685140       -0.07606589082261
H           -5.51718848416540        3.59820375916592        1.50267582822677
H           -0.73199993109488        1.79830149844145       -2.23162672451647
H            0.18558466069777        1.94893695000235       -0.72449882892726
H            1.03227543034734        1.63238351599757       -2.25286957882291
H            0.69329176459205       -0.48348752049302       -3.46530627195299
H           -0.05818799889659       -1.88143156899576       -2.69163364309326
H           -1.06712000296059       -0.54727283801605       -3.27304461425059
H            1.03886992277789       -0.32227116963946        0.30693240976302
H            5.49030791788406       -0.57137464770665        3.58931525055537
H            4.02313724114682       -1.57438070065718        3.55379739051198
H            3.88645893939159        0.16759482287277        3.79184569858754
H            4.90915645398714        1.08731429185108       -1.96891179949477
H            5.04599589694386        1.97184981242276       -0.42153244297551
H            6.41844716026249        1.00233156378428       -1.02290902867752
H           -0.84406478533235       -3.37631059405820        0.59570065813913
H           -1.17340199512275       -3.42571720937077       -1.14584122688185
H            0.25045521271422       -2.53904623250203       -0.52791156091917
H           -4.88999144411066       -1.89060282552607        1.45290808815432
