46
 energy: -86.342853290577 gnorm: 0.000778082123 xtb: 6.5.1 (579679a)
C           -6.18596230880107        0.97828072933809        1.44702403998321
O           -5.09799898385740        0.55714988960994        0.60410279466498
C           -3.92055611986813        0.39439241941957        1.09830701529660
O           -3.79931000237986        0.63394724160442        2.35812389193621
C           -2.60641601365266        0.52811115350170        3.14783812541952
C           -2.87997957044133       -0.04006975254064        0.19003951448031
N           -1.61269736537856       -0.21901107720319        0.68745502640938
C           -0.63448278751200       -0.62399693972857       -0.06309861763764
C            0.71119688483136       -0.82658752420993        0.62051827586059
C            0.71589278784578       -0.16705687974432        2.00451771822838
C            0.96467927221709       -2.33530880092403        0.77043094411392
N            1.74062222144118       -0.17682397859974       -0.19422277071944
C            3.06787102616443       -0.25851037656504        0.09117840666613
O            3.56838431579108       -0.98456980492564        0.92624479843167
C            3.84134629738774        0.64373347370790       -0.79473795290087
N            3.34805299683240        1.43187876776457       -1.70352971677149
N            4.40106581832678        2.06867939468222       -2.28357400486467
C            5.47217622326268        1.62977562040693       -1.69096910045443
C            6.87509314038156        2.01929344325090       -1.95408042150255
O            5.18172937393519        0.72901487847431       -0.74164573446540
N           -0.81041128261653       -0.90979048755920       -1.39320176773541
C            0.20527488218408       -1.43510314289849       -2.31648523418572
C           -2.03448929203322       -0.74764006683031       -2.00434547452686
O           -2.22290153446842       -0.98728661659695       -3.18611445618477
C           -3.12275871367530       -0.27709176831370       -1.14737303171567
O           -4.28917111755703       -0.13115354770558       -1.74137888363048
H           -5.94336585335990        1.93924559310747        1.90115522705164
H           -6.35092301043236        0.23224946010996        2.22502547260091
H           -7.05223376527585        1.06068673233462        0.79429495008220
H           -2.23812217993400       -0.49683592989699        3.12492253260670
H           -2.90194336378414        0.80987158824151        4.15766400178390
H           -1.84712106838348        1.20759719539651        2.76303099675346
H            1.70941019831210       -0.25850835190243        2.44084674388340
H            0.45715935549790        0.88665714539597        1.92078338707451
H            0.00074640184991       -0.66435067027845        2.65512039794722
H            1.14244218868367       -2.80675559379400       -0.19292886090685
H            1.82896708089525       -2.50404047485752        1.41013028097311
H            0.09011638209511       -2.79255055983268        1.23083440499625
H            1.44521720176271        0.59732975971023       -0.76996601811131
H            7.25238283509935        2.62723637690485       -1.13022074493248
H            7.49952204327460        1.12979780858038       -2.03230774337272
H            6.92897492685855        2.59302946115663       -2.87671082420811
H           -0.10521796666652       -2.43244088009073       -2.62825373274201
H            0.23326815038174       -0.78182831843779       -3.18881942738445
H            1.17912143180316       -1.47101944124484       -1.84652997423495
H           -4.20465413703366       -0.36962514802367       -2.68909445405102
