43
 energy: -76.186228993590 gnorm: 0.000741820652 xtb: 6.5.1 (579679a)
C           -4.46195163989977       -1.08271335502828        0.27323813778242
N           -3.01420845249243       -1.08009957290197        0.50712564261638
C           -2.22489006040960        0.03483602922619        0.43450381282683
C           -2.76796560169225        1.40827695048245        0.05542187055441
C           -1.67782545962452        2.46641329152872        0.28823011769042
C           -3.16179255893666        1.41090320626254       -1.42854037569438
N           -3.93768304895535        1.73506826977283        0.86935329267110
N           -0.94374925817786       -0.03226992035776        0.63886397836356
C           -0.34583583157921       -1.22044294442007        0.94487036953922
C            1.11966425163764       -1.20366543496129        1.17203007798013
O            1.75163558018791       -2.23114953112106        1.43834163876294
N            1.68528541406611        0.00758638280643        1.08208336430810
C            3.12062178517170        0.20378061801397        1.24153545832360
C            3.82855960343277        0.09265607634219       -0.09229670389599
C            4.25812748176591        1.23566406907510       -0.76106882285298
C            4.89383271798769        1.13761586413223       -1.99185853203075
C            5.08297334177295       -0.12105480629883       -2.53230778691319
F            5.69725783154748       -0.22588945223200       -3.72234848703857
C            4.66748261888231       -1.27721561953202       -1.89581806752334
C            4.03598306499841       -1.16068107937678       -0.66621329992262
C           -1.06967408830316       -2.38004662804088        1.03184280141768
O           -0.53078370423143       -3.57146820238351        1.32433812873916
C           -2.50488664916760       -2.34957638380376        0.78817292621370
O           -3.24790334339787       -3.32376820602230        0.81384970276645
H           -4.92920323073453       -1.71566686737286        1.02965112120594
H           -4.85726750433784       -0.07505412307717        0.34900127681657
H           -4.66504011619505       -1.50015084072808       -0.71408753166591
H           -0.81439336801186        2.27267911035128       -0.34607134979646
H           -1.35815529623567        2.45207759011179        1.32865688312445
H           -2.07599738032167        3.45212114024696        0.05481939644790
H           -3.97147011691262        0.71040065684131       -1.62453832876636
H           -2.30277008275305        1.13729300509631       -2.04033365393438
H           -3.49066127741234        2.40916838590141       -1.71349476730847
H           -4.33395752219990        2.60178126777083        0.53313489773190
H           -3.64770686322180        1.88327205898033        1.82713570708863
H            1.11226402140337        0.79095036953950        0.80551977935527
H            3.27893751618304        1.19046994724082        1.68155574991984
H            3.48718504823602       -0.56381931388703        1.93058472540154
H            4.09941154735880        2.21236298148769       -0.31970284869035
H            5.23429827648267        2.01809801987236       -2.52055582117779
H            4.83756149590084       -2.24345249582256       -2.35316712887351
H            3.70197503464163       -2.05135065434845       -0.14637113718082
H            0.44271682354946       -3.45394085936785        1.45679278561535
