43
 energy: -83.174514288782 gnorm: 0.000415409743 xtb: 6.5.1 (579679a)
C           -5.29961430190084        2.86459725377194        0.66814919702646
O           -4.11829748585073        2.04569229736935        0.62655256194641
C           -4.20805986663775        0.90516067860639       -0.01165636342594
O           -5.21114105175071        0.49839558656600       -0.56322783160414
C           -2.93640681935350        0.11284418750221       -0.01246167349326
N           -1.86325851230032        0.63801868856263        0.60881831448577
C           -0.74085024821446       -0.01640357299438        0.61746993894073
C            0.46619069889993        0.50844796999783        1.35283197498471
C            0.36499469820987        2.02510866833797        1.53993397136914
C            0.52001004022967       -0.22295390290341        2.70507273842247
N            1.63938757032337        0.17441841361464        0.54148151460643
C            2.91125807999699        0.43618785379580        0.96172350188531
O            3.22792332216612        0.76125096382050        2.08651886140341
C            3.87151295969077        0.24661798315954       -0.14913613587087
N            3.57092719045082       -0.01277508699314       -1.38762124189518
N            4.74477436375987       -0.07285500310388       -2.07130409845996
C            5.69017189069420        0.15561103055947       -1.20681519039693
C            7.14952108054206        0.18347941829751       -1.44881147770828
O            5.19938419484405        0.36594509269935        0.02194809499938
N           -0.64430407811141       -1.23678790107356        0.01651255964344
C           -1.66316020892350       -1.82813746642671       -0.62587970817801
O           -1.37126201884245       -2.98863730218319       -1.14402167386733
C           -2.31358406983032       -3.79306942290363       -1.87747896174926
C           -2.89771002765819       -1.12326500894619       -0.65329148971616
O           -3.93636766825103       -1.66334338315413       -1.27306826362079
H           -5.04795594680743        3.73369355633196        1.27162426971785
H           -5.57297824933547        3.16265605789262       -0.34565076024265
H           -6.11952854832027        2.30270749347678        1.11887557499401
H           -0.54684603788687        2.26434293731549        2.08418539281443
H            1.22584332410114        2.38048562082170        2.10367036965142
H            0.34014738414847        2.51835922874582        0.56990997779235
H            1.34330996277845        0.16049202988032        3.30402131916537
H           -0.41512638834567       -0.06009275495671        3.23782207589910
H            0.65843908290939       -1.29004842060314        2.54434394241087
H            1.50581588814954        0.10799106642658       -0.45644059013643
H            7.60044331511775       -0.74229015952539       -1.08805400258446
H            7.34399395997829        0.28154797934335       -2.51447324221482
H            7.60042884874313        1.01465756426214       -0.90847844393482
H            0.23585703693568       -1.73955644123133        0.04144640371498
H           -2.66324248645004       -3.25231706727824       -2.75720165460242
H           -1.75863449188963       -4.68282204787156       -2.17146476091393
H           -3.15517105291577       -4.06082054690340       -1.23826656767423
H           -4.72683833309677       -1.06253413210417       -1.21188542358426
