47
 energy: -79.490681470926 gnorm: 0.000581129250 xtb: 6.5.1 (579679a)
C           -4.42871333446312       -1.14964228946646        0.44802348623659
N           -2.99341858650048       -0.86298081281321        0.36662950119977
C           -2.42194630806872        0.32040381974955        0.57577850915077
C           -3.16424044794283        1.63530242148633        0.62926310013565
C           -3.73984383605077        1.88687625156730       -0.77579899601663
C           -2.20441125691259        2.76826371475219        1.01399124478690
N           -4.26035223071744        1.53593012856633        1.57989697254889
N           -1.09845138755676        0.36770129497921        0.81904558076212
C           -0.26603032268123       -0.57365121403946        0.52323792519748
C            1.12305693701141       -0.41318043525298        1.11268400828717
O            1.32330225689325        0.44823050533533        1.95127015170741
N            2.05525860161388       -1.24989011068771        0.64406411183738
C            3.43776314647817       -1.17270905615104        1.10745743624323
C            4.29915822777775       -0.46287291976781        0.08500214081901
C            4.03404546373879        0.86583136835684       -0.24257919327923
C            4.81190011956321        1.52735508010703       -1.18093692865469
C            5.85334350617316        0.83622709749391       -1.77561688757614
F            6.60821744530136        1.46886819518222       -2.68483211642595
C            6.14406520298755       -0.48118391484614       -1.47115601897203
C            5.35263657347969       -1.13030167033262       -0.53303229581269
C           -0.75181036033358       -1.66775595375205       -0.36951804697504
O            0.03016659868307       -2.81266854644911       -0.26926116358232
C           -2.20317032616012       -1.98276340842409       -0.01887161636416
C           -0.79304529944705       -1.15399086688299       -1.83780038475720
O           -2.69824004939037       -3.05781463834238       -0.18579033883901
H           -4.92884760883617       -0.32265096113650        0.94543354879427
H           -4.55336898999936       -2.07471221617100        1.01000660111211
H           -4.81149416020583       -1.28509938918295       -0.56239334933862
H           -4.47161813589780        1.12451190218622       -1.03283794506086
H           -4.22567825966582        2.86089393574780       -0.78563640091779
H           -2.94216699455326        1.88074066314614       -1.51677639297764
H           -2.75710504959557        3.70469587888698        1.05209283466354
H           -1.40702147217139        2.85196902740337        0.27732544063033
H           -1.76582037501543        2.57339711339913        1.99128832202060
H           -3.90475382203779        1.56661867673231        2.52561733381941
H           -4.89132215277935        2.31227367825629        1.44336075348994
H            1.83708525448060       -1.93579048784182       -0.05983990918705
H            3.79381934903847       -2.19233815123979        1.27085098256148
H            3.44029401555307       -0.62939680167040        2.05773476196417
H            3.21153520328147        1.38399357377972        0.23581814278649
H            4.61431928479981        2.55676643947198       -1.44995062024294
H            6.96574151236052       -0.98871500523722       -1.95950081711586
H            5.55949612154826       -2.16392762483901       -0.28278169275779
H           -0.42885348457879       -3.58139943273742       -0.64007538067066
H           -1.24937130980133       -1.91786989844055       -2.46281782309016
H           -1.36366073073746       -0.23130853713606       -1.90361953046341
H            0.22954647133194       -0.98223542374707       -2.16476904167919
