42
 energy: -83.020614672478 gnorm: 0.000588988606 xtb: 6.5.1 (579679a)
C            5.20169901500284        0.88262566926370        2.10781282991931
O            3.99464874135623        0.69194519425342        1.36617841579112
C            3.91491370562024       -0.42884204626230        0.64276421565694
O            4.80333506326800       -1.24804287384842        0.60366987888783
C            2.61651661639605       -0.52192514735782       -0.08879575805751
N            1.74171208256850        0.50558813825819        0.14932299030930
C            0.59443609284311        0.51110373858048       -0.43532488897202
C           -0.36587063671781        1.65857584188975       -0.21287429861279
C           -0.00570943849339        2.40016389099228        1.07808801978388
C           -0.27807979591410        2.58878177763041       -1.43302234757415
N           -1.71573355767066        1.09245572848612       -0.10636370048861
C           -2.82216823903854        1.85457568100587        0.04932851499546
O           -2.85236929508578        3.07273480871797        0.02494189737097
C           -4.04761734201389        1.04009256389361        0.24207859025129
N           -5.25942495742628        1.46166108684020        0.42990648553986
N           -6.04612133497490        0.35638750617170        0.55417249702680
C           -5.26627103639669       -0.67297596305465        0.43580217823750
C           -5.63847070589533       -2.10371955884958        0.47764066402063
O           -3.98796684828209       -0.30982512963997        0.23868322956323
N            0.23317279806194       -0.46660698742953       -1.31392884686160
C            1.01843150108620       -1.55478632415031       -1.63800256823491
O            0.61155932399886       -2.38178818083166       -2.44019944322054
C            2.30808766345792       -1.56121361116119       -0.94071018623386
O            3.19862772105813       -2.54355472495168       -1.11720893601811
C            2.95361976899933       -3.67643874934312       -1.95054130332937
H            6.05818629065701        0.92076487918624        1.42999348214645
H            5.09690401358461        1.82776004455477        2.63666465846127
H            5.34039538346127        0.06427544342871        2.81875221630989
H           -0.08150462171930        1.72363717218793        1.92778585559249
H           -0.67952018747498        3.24206337049978        1.22526416562890
H            1.01773938683644        2.76577078078800        1.00995095983262
H            0.75027890058251        2.92665336857778       -1.55250412086236
H           -0.58291288769133        2.05390634021401       -2.33047618006870
H           -0.92267569579011        3.45471949315850       -1.29590333730324
H           -1.80186373954025        0.10255334614359        0.05359432677932
H           -5.43843452517060       -2.56504002103239       -0.48972618200242
H           -5.04155442073209       -2.62360697990334        1.22631522227004
H           -6.69491105848336       -2.20147001648086        0.71545267630595
H           -0.66427092615958       -0.42715800633320       -1.77268917370122
H            2.07820715911685       -4.23323460117946       -1.60937115584727
H            3.84364610659404       -4.30097067364986       -1.86129327553821
H            2.81733691612258       -3.37759626926973       -2.99215026774458
