16
 energy: -34.172802912270 gnorm: 0.000336003028 xtb: 6.5.1 (579679a)
C           -1.35859453098385        1.33140590973765        0.28658878615359
C           -0.62687001422696        0.01022947661145        0.01761591389178
C           -1.41680895117885       -0.88134598497843       -0.94923936161150
N           -0.42093736135719       -0.70502932243689        1.28924828986910
N            0.83482073816620       -0.84457817440440        1.47533273342153
C            1.53560585114200       -0.29814600051544        0.46109957466306
C            2.91094392852868       -0.29749877845290        0.37932059435854
O            3.74443237670030       -0.75308624363564        1.15082460028876
Cl           3.52917785449879        0.52681042552613       -1.14147506502172
O            0.67496360633173        0.25864490080263       -0.49014084415631
H           -1.49889887526657        1.87737087836950       -0.64422121139365
H           -0.76813119716614        1.93929613387728        0.97020308998587
H           -2.32843571408261        1.12865021510247        0.73559882836920
H           -2.39474158411171       -1.10444066310375       -0.52839205988225
H           -0.87491471024303       -1.81230517553053       -1.10749048345221
H           -1.54161341675068       -0.37597759696912       -1.90487238548383
