20
 energy: -38.344502485581 gnorm: 0.000914428416 xtb: 6.5.1 (579679a)
C           -2.92482096484210        0.94909592049221       -0.20102140515019
O           -2.20189433136303       -0.23216271888425       -0.44310018666554
C           -1.16207824224293       -0.53834892475218        0.61168197549043
C           -0.86771185674701       -2.04849712084046        0.36069270820405
O           -1.49157627622772       -0.21282139678510        1.81087904777523
C            0.09687796446727        0.26832137174058        0.09912369978756
N            0.18210157602127        1.54430082378941       -0.11301058505353
N            1.49421175181550        1.81338199226500       -0.45294825220596
C            2.11483132220743        0.68298698210442       -0.41619095365425
C            3.54769801615151        0.42714341287760       -0.69980244125030
O            1.29818094092363       -0.33415773074172       -0.07442146615741
H           -3.31200156938425        0.98662705701441        0.82947457302265
H           -3.77306370430974        0.97252319780052       -0.89215478651958
H           -2.31041372943248        1.84966310703866       -0.37152277550012
H           -1.75726303772330       -2.61726373970759        0.62408673125474
H           -0.04186898001622       -2.35880900483658        0.99738546804464
H           -0.61500324999724       -2.22867901838372       -0.68220330593318
H            4.02326918084781       -0.04973826026930        0.15683938459375
H            4.05074850581982        1.36640391309101       -0.91543714346503
H            3.64977668403159       -0.23997286301440       -1.55560728661820
