47
 energy: -79.493306752445 gnorm: 0.000223779912 xtb: 6.5.1 (579679a)
C           -3.87200220985414       -1.60712024165131       -0.82712229242940
N           -2.70094767234674       -0.73426610806312       -0.95888504580152
C           -1.78781901582074       -1.13385439453541       -1.89187798178155
O           -1.91832610168446       -2.08625329143978       -2.64248600473986
C           -0.55591487076738       -0.32218175143396       -1.95747701411228
O            0.33275945686398       -0.66940858628673       -2.83164970631153
C           -0.29029937598173        0.65714392091193       -0.95202884155677
C            0.69638240517073        1.78280422489960       -1.22010814975483
C            0.43601021658498       -0.47282845423493        0.09254060172211
O           -0.19633735486981       -0.84125365567424        1.03535152612012
N            1.65992001711383       -0.75615342252907       -0.28386373919097
C            2.52290805230238       -1.60907976113600        0.54710780350658
C            3.88090748655113       -0.97889776661778        0.73468118913926
C            4.02320202288251        0.40276623300311        0.83585754324307
C            5.27515240244043        0.97026197704766        1.02349233288793
C            6.37021538252942        0.12967489190539        1.11547330419984
F            7.58181593216974        0.66911074928984        1.29727697184541
C            6.26237651980725       -1.24684545517278        1.02335266393872
C            5.00454369209580       -1.79800325539501        0.82827768250904
N           -1.42126723447778        1.10060066761608       -0.24996176178919
C           -2.51717863006555        0.43072851124156       -0.21667040098239
C           -3.59906238682619        0.97709611872814        0.70452772166994
C           -3.65782213814160        0.09895804507874        1.96330476333189
C           -3.23837810001304        2.41699191249585        1.10528394681933
N           -4.89267475687956        0.96274907692974        0.03268452133275
H           -3.68687210322337       -2.33031388861062       -0.03315185532296
H           -4.01120080502513       -2.13087636316063       -1.77182557228105
H           -4.74804298098170       -1.00518440630431       -0.59495479022504
H            0.03248413232418       -1.43816141045948       -3.36833707592674
H            1.11137837698082        2.14722897917414       -0.28280157909042
H            0.15578647801259        2.59601665331459       -1.70301713450202
H            1.49752137399706        1.45101736594356       -1.87507010354952
H            2.01915317791970       -0.47922430540841       -1.18295709151315
H            2.01709220919690       -1.74994528013946        1.50704052564922
H            2.61144996025828       -2.57983474254778        0.05155824452325
H            3.15174422096886        1.04092780310961        0.75763266788335
H            5.39803511257876        2.04286824468944        1.09619090219064
H            7.14276068199924       -1.87220840018859        1.09642286381742
H            4.89696838198376       -2.87291563087034        0.74622306440604
H           -4.04220269056342       -0.89163935583695        1.73129246789087
H           -4.31529982135759        0.56426054692362        2.69615702042248
H           -2.66050637251679        0.00113763881634        2.39092910020531
H           -4.04607432241513        2.83169545389008        1.70575612657419
H           -2.31683387963227        2.43282444889661        1.68488232227909
H           -3.10502666448942        3.03188566790734        0.21722985929730
H           -5.60985458209901        1.23302176891753        0.69203894018033
H           -4.89062162270376        1.63467902697056       -0.72221253673430
