42
 energy: -82.978705732977 gnorm: 0.000976496497 xtb: 6.5.1 (579679a)
C           -2.70930562344257       -3.65323843854560        2.02826899211391
O           -2.27612229790986       -2.51053745680041        1.28876637655017
C           -3.24816448204207       -1.79657269637428        0.68901269012613
O           -4.42320843908014       -2.09532622783668        0.76602823115287
C           -2.72374540063726       -0.65126089606557       -0.03823927608506
C           -3.48002244493814        0.24457820523140       -0.76992767524828
O           -4.60973178448161        0.49371741853319       -1.06910874336478
C           -2.63935272863480        2.63642770357143       -0.92363069843799
C           -2.76103522102315        2.81176950914191        0.54541297705582
O           -2.82042528138491        3.45340529621406       -1.76934329909326
N           -2.32390772983671        1.25913936326603       -1.35125272970220
C           -1.10530591827236        0.64762769964880       -0.79438534834603
C            0.26313877499157        1.15791653357976       -1.15511796037600
C            0.47708594566061        1.04040024069276       -2.67280178920607
C            0.47817000414843        2.60391399839980       -0.68812268349795
N            1.18750814852299        0.27189717162275       -0.45219636004954
C            2.52930630197724        0.37636383191721       -0.52219842068574
O            3.14459659868177        1.20332448520193       -1.17211802628028
C            3.18102366056772       -0.66627817308980        0.31160097077578
N            2.57367183695926       -1.57167624947910        1.01771968420206
N            3.54290949282932       -2.31596025182369        1.61991487280865
C            4.68072659286551       -1.81614619229784        1.24263596453541
C            6.03655238223890       -2.26866282634538        1.62420888518443
O            4.51820715623660       -0.77269301445974        0.41587864386997
N           -1.35867600359323       -0.38002229754955       -0.09422740890935
H           -3.20552110499949       -4.36843359088269        1.36632930550082
H           -1.81770692602044       -4.10170363003869        2.46271231857738
H           -3.40320348704218       -3.35383624135941        2.81820985805836
H           -3.79509828177957        2.58847483575596        0.81723392368489
H           -2.55430898638857        3.84749258652367        0.80491224063514
H           -2.10474446137529        2.13759972498785        1.08942496518634
H           -2.35383043192735        1.23416897746612       -2.36909748397998
H           -0.24524071218039        1.66630020782611       -3.19320284656659
H            0.35077260047671        0.00637836761163       -2.98825107246358
H            1.48145237228619        1.37362256106748       -2.92834158712785
H            0.33345008937589        2.67586927830606        0.38818887644520
H           -0.22308233089277        3.26432313398725       -1.19274341129288
H            1.49132016862053        2.91831211823830       -0.93297518043239
H            0.77750589674725       -0.46000531651327        0.11685596030554
H            5.96247238308381       -3.13569793577204        2.27597748256423
H            6.56409422001993       -1.46738998205856        2.14158467340077
H            6.60777445158709       -2.52757983148188        0.73295110841272
