47
 energy: -80.225970013109 gnorm: 0.000326218491 xtb: 6.5.1 (579679a)
C           -4.33582137115504       -2.21239109461941       -1.21460191498425
N           -3.18233036827620       -1.50563577700490       -0.66010261325446
C           -3.25405493622778       -0.28290894106671       -0.03552120826845
C           -4.56198978431003        0.48663659500200        0.19669585433825
C           -5.42001119714228        0.64849340675847       -1.06534478042108
C           -5.35624795826346       -0.16178429913825        1.34061699001349
N           -4.21558002032319        1.83292214822546        0.63953496183515
N           -2.19534909879196        0.29925134415733        0.43446809484121
C           -0.95792100161673       -0.27185925353016        0.35292397599502
C            0.16027329132869        0.54641982943817        0.93976635158062
O            0.08189883596904        1.76274704434876        1.05183556636341
N            1.23285116374074       -0.16448698386246        1.33455008971666
C            2.40593225857483        0.47467800705682        1.90944005057438
C            3.57588744231149        0.51707075839655        0.94690975564223
C            3.48142655050178        0.05116985986755       -0.35992020118539
C            4.57663016842008        0.11151703826078       -1.20986354607739
C            5.79207063014114        0.63953020392961       -0.77790872447113
C            6.96362327750827        0.73551786434967       -1.70780196069204
F            6.77793209599623        3.42111123248433       -3.13578127997663
C            5.88275485873979        1.09957608615381        0.53627414647119
C            4.79074564360490        1.03862390440030        1.38803242451553
C           -0.81757615259642       -1.47451749635838       -0.27266191497059
O            0.36327802311111       -2.11170254147040       -0.43640386148362
C           -1.96814833607501       -2.14989701013906       -0.83509867040194
O           -1.86550867582773       -3.22848178735997       -1.41802137083198
H           -4.58609902496368       -1.80382761628505       -2.19295611066029
H           -5.18659319831789       -2.13616114327445       -0.54637277824918
H           -4.06354838844083       -3.26150251601919       -1.32660444504974
H           -4.79313161705839        0.83855899384288       -1.93556197525531
H           -6.03790335639856       -0.22484199670720       -1.25544452198615
H           -6.08178181378895        1.50240194871554       -0.92063090061670
H           -5.74721738998070       -1.13725155591489        1.06187642779755
H           -6.19266747829076        0.48651098617238        1.59962259193732
H           -4.71814826026040       -0.27920999840341        2.21595575451763
H           -3.64028343274889        2.27463316674955       -0.06984278577406
H           -3.65706437821816        1.76592918160215        1.48469305641527
H            1.23500816453130       -1.16704567482026        1.26734422999378
H            2.12528529927652        1.49368626645650        2.20316525589513
H            2.68878163968274       -0.07226840346509        2.81508100004397
H            2.54916550575477       -0.37282804128555       -0.71670768497639
H            4.48147290365497       -0.26974942785771       -2.22176398533457
H            7.90347593966649        0.66550700440806       -1.15992582439597
H            6.94103903023167        1.70687385742859       -2.22948963005358
H            6.93124713452303       -0.05323645516351       -2.45956797240270
H            6.82074180900002        1.50228271972213        0.90522093197337
H            4.88329934034776        1.39454186282420        2.40863242026729
H            0.19015723248379       -2.95460529698211       -0.89534426899592
