42
 energy: -82.950943864001 gnorm: 0.000797360189 xtb: 6.5.1 (579679a)
C            6.05708890950344        2.60109423849022       -0.34738743325319
O            5.08739576624026        1.80975382794481        0.33719862849691
C            4.06393820933325        1.36066987818442       -0.39857865258485
O            3.95295499549758        1.61694946073351       -1.58254144897443
C            3.09900560565900        0.52565411158628        0.34973147024762
N            2.09168522255518        0.05221222920775       -0.42534183657567
C            1.17228225582212       -0.72150989242216        0.06492358454429
C            0.09382813982081       -1.25291398078416       -0.85801285093060
C            0.34041343278565       -0.73777048468021       -2.27639473295260
C            0.05817302720565       -2.78456670530532       -0.84865679911445
N           -1.22856905215208       -0.71172434423766       -0.44822712392217
C           -1.91634571105057       -1.10418031503450        0.61397754433103
O           -1.56183160540671       -1.85553046195576        1.49696068861821
C           -3.35995140617863       -0.47726171112857        0.71511748593133
C           -4.36457991013876       -1.62229707728793        0.84834316110056
N           -3.36268039025004        0.40603950370949        1.83388181344813
N           -3.62936620300140        1.60145785722284        1.41921893797019
C           -3.81966712480076        1.55897646073377        0.09950677799794
C           -4.16445446229324        2.69712994193772       -0.76324633858189
O           -3.66415257163938        0.34867547520463       -0.38928664779741
N            1.17328746189130       -1.09155092370707        1.37428265403706
C            2.10190594296229       -0.65938966968584        2.29890253411887
O            2.01294935235810       -1.00418751579742        3.46475153681163
C            3.19588713985078        0.23428058434738        1.75151102803345
O            4.07263264226640        0.64492704906287        2.51452503719133
H            6.79248815328429        2.90960019388261        0.39351901861575
H            6.53836255304238        2.01316515680620       -1.13304823813390
H            5.58354850721579        3.47729868570848       -0.79710267007400
H            0.35339066416992        0.35103718488271       -2.28579612568427
H            1.30364782314629       -1.09935746486280       -2.63279082500940
H           -0.44286076932041       -1.09462019244683       -2.94119461702009
H            1.00654650888727       -3.16528531163768       -1.22494123553196
H           -0.10469533103576       -3.17437673684464        0.15338801648387
H           -0.74503865328029       -3.13193201287919       -1.49546331784135
H           -1.69621101132742       -0.14278824893298       -1.13497994597007
H           -4.07185741935946       -2.24726735493777        1.68963029969353
H           -5.35634548429278       -1.20894230999756        1.01378915629667
H           -4.36154178072998       -2.20745272574222       -0.06778880118519
H           -3.31168433973163        3.37486656695843       -0.83727357033439
H           -4.98986091386166        3.25554038641869       -0.32122918081450
H           -4.43371337260306        2.34796054807603       -1.75676433297406
H            0.43399419895796       -1.69238490079516        1.72027735128846
