33
 energy: -57.774290463172 gnorm: 0.000599783686 xtb: 6.5.1 (579679a)
C            3.54345230101613        0.54677674235252        1.90064707437065
O            2.31997891584279        0.56548214719935        1.16702290620763
C            2.34746671913621        0.09315485848829       -0.12915701638845
C            2.37327394709743        1.31850189817347       -1.12244207850848
O            3.42919702494244       -0.72535955674927       -0.34813856998929
C            0.99943460235743       -0.49191209841685       -0.51267305494692
N           -0.06824156116925       -0.01726714414731        0.06551265441379
C           -1.27775267236453       -0.50789449917829       -0.23029283545942
C           -2.47402850989125        0.10545460876438        0.41082901957922
C           -2.41104918718035       -0.15631245950283        1.92611739389552
C           -2.42814120224182        1.62980526115357        0.14381286183428
N           -3.66070820947741       -0.49087326221381       -0.14333195640255
N           -1.43233763653287       -1.58147896332483       -1.00570912987427
C           -0.41229779487929       -2.19794525457886       -1.73689837471640
O           -0.61492290842944       -3.16010427251050       -2.41691598634135
C            0.92134386898805       -1.44614217670263       -1.63706546440830
O            1.82301069840272       -1.65306591184575       -2.41053449811785
H            3.84021662355719       -0.48191501846747        2.12780102383966
H            4.34148695847163        1.03897260158112        1.33690548960040
H            3.34789438511070        1.09381500375290        2.82229464770381
H            2.32724297222076        0.98001614792640       -2.15312458130452
H            3.32292348243549        1.81611850348546       -0.93449510352415
H            1.54798124455781        1.98688622431206       -0.89679187693413
H           -3.24120044553493        0.35748440925987        2.40662455029227
H           -1.47155276983637        0.21789050440844        2.32884720034949
H           -2.48877629685815       -1.22500289547080        2.11788574856503
H           -3.28367988965719        2.09177495215543        0.63041111920449
H           -1.50698577778471        2.04655808510013        0.54669176150884
H           -2.47477542242316        1.82066448341948       -0.92600669907121
H           -3.84240807421246       -0.16726172509750       -1.08086746675951
H           -4.46939296968367       -0.32737145538919        0.43744803046995
H           -2.36612440009703       -1.97970832339641       -1.06810536630786
H            3.43947398411740       -1.09974241453975       -1.24369742277721
