42
 energy: -82.978674409534 gnorm: 0.000566033579 xtb: 6.5.1 (579679a)
C            5.09756315753067        2.37195032429201        1.47349094556212
O            4.75550294920348        1.10695347664802        0.92001036744094
C            3.43852316185778        0.88970712888587        0.70801124072509
O            2.60258254685747        1.74221939869843        0.98558351735768
C            3.11748558984120       -0.40862393824617        0.13370718345727
N            1.75931521902523       -0.56726806137647       -0.06728928036740
C            1.28333840651355       -1.64727106261192       -0.56456117335488
C           -0.21988993658160       -1.76891177142771       -0.74348374558554
C           -0.78804786379203       -2.87694092811274        0.14987415435830
C           -0.59286911230126       -1.97763974945039       -2.21453819132675
N           -0.71883477614877       -0.46465211828111       -0.28999112890136
C           -1.94520269568963       -0.04513613319343       -0.21217168151152
O           -2.91434702600731       -0.83650415739922       -0.57563565006170
C           -4.30090025745684       -0.46834345217882       -0.51860475819967
C           -2.11866243978135        1.30332887898607        0.28520660786095
N           -1.13858867140100        2.08830067430235        0.63487028222145
N           -1.69041353860162        3.24766710338859        1.04000196472656
C           -2.98168012894347        3.11758395026964        0.92006489642422
C           -4.02653332437461        4.10757996405889        1.24340244790821
O           -3.31162258673055        1.90771217653327        0.44623509642445
N            2.08364163132510       -2.70087207734973       -0.92880389986825
C            3.45612405396949       -2.68506405095668       -0.79248782445646
O            4.10830025515785       -3.65721504693076       -1.15046548946344
C            4.05180736031637       -1.42558537252533       -0.19358212672950
O            5.28149500075976       -1.37063129642451       -0.03642867957125
H            6.18023279647856        2.38529093374461        1.59407974931070
H            4.61332202143021        2.51198080450273        2.44464666756014
H            4.78772561514666        3.18092652521668        0.80497680010139
H           -0.58229861375680       -2.65466252917516        1.19594650221402
H           -0.31977117038967       -3.82341379717518       -0.11290948273426
H           -1.86207427828702       -2.96720239039437        0.00833125389440
H           -0.20312636071073       -1.15965070869110       -2.81840660204924
H           -0.16619397903313       -2.91546653367563       -2.56436809742462
H           -1.67304736967465       -2.02272461253260       -2.32870306795835
H            0.06169355313175        0.15463920363116        0.01096160006923
H           -4.84458465630582       -1.33991078307430       -0.87802830849528
H           -4.58634177855086       -0.23776228924446        0.50789903387201
H           -4.48887252869475        0.39029510716020       -1.16344159071764
H           -4.61895698356167        3.75459689837630        2.08807318112340
H           -3.56736590186473        5.06050395228310        1.49496275052380
H           -4.69730166592733        4.22964504944994        0.39407913748069
H            1.67887232603428       -3.52942968998979       -1.33051460184900
