42
 energy: -83.668562186867 gnorm: 0.000818866264 xtb: 6.5.1 (579679a)
C           -6.03016262534311        1.25675341200799       -1.03165787011370
O           -4.79171234592218        0.63839705177267       -0.72265851122096
C           -4.50177399524622       -0.49690383370716       -1.43754327078106
O           -5.29231147576102       -0.91062925311334       -2.27387712309948
C           -3.22262476201309       -1.07415785083397       -1.07094508988209
N           -2.52660542290420       -0.39094988601283       -0.08843006771715
C           -1.38503877276867       -0.81199886001399        0.31345899508883
C           -0.64459292413041       -0.11542381152838        1.44053434104478
C           -0.94568605458261       -0.89552934981863        2.73280500531409
C           -1.13869980971662        1.33412215352250        1.55656813205397
N            0.78402731493874       -0.17601544848624        1.13225731314799
C            1.71307416426581        0.48415685087075        1.96569319988814
O            1.44949356557966        0.77452986515752        3.15172809471095
C            2.95864470730878        0.72279368058921        1.34737149323394
N            4.02936462632758        1.28284409179058        1.89526373377948
N            5.00460649259698        1.36977256062972        1.04344884720194
C            4.53755172989473        0.79664995100802       -0.22994401537425
C            4.59935312210321        1.86490856066296       -1.33397059760061
C            5.40693168012278       -0.41795661631849       -0.59837925501867
O            3.19450942630276        0.39195431572260       -0.00484177151476
N           -0.81299539746975       -1.96034285151141       -0.19599895653344
C           -1.38922039252330       -2.73717288876712       -1.16327518455254
O           -0.81551261787799       -3.75219681012219       -1.55846381505794
C           -2.73284973373623       -2.26330984869628       -1.67311932155015
O           -3.30650770329341       -2.93001544379524       -2.55576826852990
H           -6.04694999327445        1.59896581550222       -2.07177317594235
H           -6.13735605866276        2.11106569970565       -0.36425070174671
H           -6.86310497083998        0.56278425246455       -0.87669332024656
H           -2.02423530301210       -0.96058384791729        2.87458136625316
H           -0.50711563637489       -0.39913440475640        3.59637659603572
H           -0.53779581497321       -1.90315762814043        2.65965055591097
H           -2.22219544678317        1.33950542641165        1.67247024723558
H           -0.88230539930333        1.88954543899149        0.65480098584030
H           -0.68574259915138        1.82145976886440        2.41824745794525
H            0.98667761471783       -0.03490873538059        0.14929879419851
H            4.25187796394657        1.45308306963913       -2.27990188925255
H            3.96749838786675        2.70776829994529       -1.05811582974138
H            5.62413005348510        2.21244961937181       -1.44737431983868
H            5.36263126283858       -1.15061290205764        0.20598126356327
H            6.43932040467143       -0.10164200058638       -0.73268293723218
H            5.04730127650442       -0.87596715099358       -1.51827600672546
H            0.08610146218877       -2.25490246208122        0.15644887681636
