42
 energy: -82.939521746626 gnorm: 0.000362304353 xtb: 6.5.1 (579679a)
C           -6.67626833350903        1.98733869017077       -0.57562163440987
O           -5.62072918573389        1.04800682491452       -0.78291182244181
C           -4.58274808336232        1.13108189468729        0.05029297059952
O           -4.51705197274741        1.95701996578376        0.93846174358697
C           -3.52073302024419        0.12325189962773       -0.20300721198370
N           -2.49399652087856        0.20211396589447        0.66744565389490
C           -1.48106999646644       -0.61499966877183        0.59457524824521
C           -0.36790983313234       -0.49592247943314        1.62163473162659
C           -0.13358215837495       -1.82415181333148        2.34923914838166
C           -0.71741378769908        0.60067072492969        2.62842919162308
N            0.85554799076806       -0.06052726308949        0.92612243577754
C            1.62798370510261       -0.83393867323136        0.13831684024382
O            1.41072759004716       -1.99423745592215       -0.17142802020023
C            2.81606888365429       -0.08638893207041       -0.34287709179051
N            3.04324876500779        1.21715893050752       -0.10270719940933
N            4.15299446209596        1.54752059074058       -0.65383592038621
C            4.71640615369060        0.39199255373755       -1.30631304275573
C            6.06107243577553        0.02443345623000       -0.67351533409818
C            4.82724655893262        0.63124466121632       -2.81454361925903
O            3.76454339764243       -0.64234770370494       -1.05225323184403
N           -1.39454598383099       -1.56148491971252       -0.36980642647139
C           -2.34936446268764       -1.75737292030509       -1.35191929532297
O           -2.19487312368872       -2.61974599133216       -2.19425335701818
C           -3.55453695889316       -0.84042007885136       -1.27376363087371
O           -4.45377829214159       -0.95698307413121       -2.10321751932475
H           -7.07291263824506        1.89122167388244        0.43830941279307
H           -7.44889030307687        1.75699774150316       -1.30673295979707
H           -6.30851496625469        3.00614865431547       -0.72136644430560
H           -1.01527347408066       -2.06515531267176        2.94098005092281
H            0.72358967679532       -1.72557331939948        3.01251293077575
H            0.05372102184658       -2.63699321968092        1.65177322572650
H           -0.87168410203894        1.54971700106176        2.11709788377181
H           -1.63490530694003        0.33572679512443        3.15143704417648
H            0.08783785099035        0.70709286768372        3.35203913835631
H            1.15646341556227        0.88844090224966        1.09172132807829
H            6.43737763362547       -0.88533643711615       -1.13510835677080
H            5.92479659838455       -0.13733538139261        0.39344220923749
H            6.76459552101285        0.83740970155305       -0.83343610635604
H            3.84491771260198        0.87323946130207       -3.21489835542197
H            5.50986400440778        1.45773217702511       -2.99430199646773
H            5.20454428868914       -0.26952176892234       -3.29258263455330
H           -0.57276416260294       -2.15712072107070       -0.40951197654802
