43
 energy: -83.872009877901 gnorm: 0.000233807517 xtb: 6.5.1 (579679a)
C           -4.87802655898268        1.02750793226709       -1.52316079802963
O           -3.71752830712931        0.32327740114489       -1.08666102965452
C           -3.93333952485512       -0.71074290520431       -0.25179594726908
O           -5.05691317468336       -1.01912882679937        0.11770005503971
C           -2.66527881988550       -1.31974380088560        0.33540988273042
C           -2.81538065383319       -2.84265316409320        0.46291097891390
N           -1.49987266873851       -1.03347805808760       -0.48636849987843
C           -0.77487016043986       -0.02161920369000       -0.19379562243502
C            0.40812918746246        0.30867579892469       -1.09725362373645
C            0.17040653742028        1.66690202256742       -1.76902266767657
C            0.59593004777018       -0.79153414187356       -2.14520229737811
N            1.59593708920579        0.37616684296774       -0.23237565646154
C            2.83840468556677        0.63394650606835       -0.67335250425860
O            3.14937801545809        0.92959917372614       -1.81600076065959
C            3.82748009708448        0.51069079367963        0.43438094524606
N            3.55920313583613        0.20799903811526        1.66832649297947
N            4.74878636326947        0.17987334491692        2.33477224368511
C            5.66625659659851        0.46496885488476        1.46298660161031
C            7.12649666973250        0.55156348583011        1.68404021805776
O            5.14875387483845        0.68491804962983        0.24476494888062
N           -0.98209819899125        0.81343780722080        0.85164968001268
C           -1.87536194389325        0.47047910296533        1.95595461489482
O           -1.75201584091058        1.17030847985411        2.99153675684192
C           -2.65457882819555       -0.61955392229576        1.68567786790399
O           -3.58099734792191       -1.12094671444309        2.62558387380269
H           -5.56565662398654        0.34733146185131       -2.03373368807323
H           -4.54167531368873        1.79988828277614       -2.21260358100623
H           -5.39444634718722        1.48205069043014       -0.67287922086526
H           -3.75031464043214       -3.08731995023664        0.96459560518961
H           -1.98391017957922       -3.24538577839619        1.04013350249292
H           -2.81018381994009       -3.29794569980809       -0.52684786577957
H            0.08035697301853        2.45006474551430       -1.01816145933033
H            0.99341618621145        1.91098677550074       -2.43804200820287
H           -0.75269816456873        1.62371546026480       -2.34564870928135
H            0.78757262477992       -1.74440980377502       -1.65368926335778
H           -0.31546167319466       -0.88211333831351       -2.73452106226826
H            1.42698855544317       -0.55260101442057       -2.80572703445097
H            1.49076297155313        0.10319231273619        0.73545540023687
H            7.49355185228279        1.53036697075780        1.37737398972810
H            7.34747148354414        0.39110973625791        2.73624066509350
H            7.63833217204984       -0.20269684293613        1.08653048719725
H           -0.30837273387996        1.53096230774157        1.06039311720117
H           -4.48463459421819       -0.99811221333093        2.29102937230972
