46
 energy: -86.351560210372 gnorm: 0.000625011193 xtb: 6.5.1 (579679a)
C            2.31702050073401        0.69911651237981        5.79426387186116
O            2.11804333677431        0.29269467038777        4.43578106913575
C            3.21669673660959        0.02261195872501        3.73057653168844
O            4.33336303047266        0.09950446356548        4.18436451992470
C            2.89535054547637       -0.37432044334111        2.32761603596302
N            1.56786143293971       -0.42675089300071        1.99814940623899
C            1.17550892742812       -0.75156340184431        0.81257100264759
C           -0.33306340544265       -0.81037048706809        0.60674829995581
C           -1.04028602252583       -0.29203328118302        1.86511370190424
C           -0.78438624952732       -2.24412640887401        0.29834819866396
N           -0.66784337636779        0.11866731323495       -0.49640124270886
C           -1.83380820526163        0.23493097328581       -1.08820522742722
O           -2.80351612279328       -0.55112456532432       -0.74606213633299
C           -4.10390978536924       -0.52136269039997       -1.36268600353889
C           -1.90753381625491        1.25832325771160       -2.10212779355141
N           -0.91233236467769        2.04448489401087       -2.41818368967131
N           -1.34702015246873        2.85128949008281       -3.39866216954164
C           -2.58929228299789        2.52295694824281       -3.64198904000620
C           -3.50139140400651        3.11373198735566       -4.63836417012060
O           -2.99396074917290        1.52310978543542       -2.84928747257004
N            2.05878512862269       -1.06313263042680       -0.19046197795618
C            1.68833761839267       -1.47180739427302       -1.54594991366941
C            3.42719673928340       -1.05257458475263        0.03864403055658
O            4.23627198273759       -1.33990092143621       -0.83322703767280
C            3.83932798411832       -0.67572948471867        1.38504715577140
O            5.15433818094826       -0.65974548360517        1.60225051471924
H            2.89802145858404        1.62411294597966        5.82677460554107
H            1.32757931421637        0.85899771188495        6.21705397836140
H            2.84568214843064       -0.08154647299473        6.34691232478918
H           -0.71257806352916        0.72104698047724        2.09044145446955
H           -2.11617802631229       -0.29737129203400        1.70811731743254
H           -0.79487367373097       -0.93868087976981        2.70570184886786
H           -1.83759933713247       -2.37021818972226        0.53819157144853
H           -0.20447955940318       -2.93390691953793        0.91096243893645
H           -0.63794573691157       -2.49131454341024       -0.74921274276463
H            0.02788059530833        0.80754510495795       -0.76063540728677
H           -4.56408443921918        0.45493644760284       -1.21105429685394
H           -4.67670919407279       -1.29911665542085       -0.86144497335598
H           -4.01347232197228       -0.73500176958555       -2.42732976694480
H           -4.39895635223398        3.48500224223980       -4.14338834496589
H           -3.80764341980210        2.35019831088186       -5.35437590462429
H           -3.00153026067949        3.92702249036696       -5.15963191121002
H            2.42413977424262       -1.05336402771384       -2.23304327088887
H            1.71461497920171       -2.55958064779652       -1.61124479863731
H            0.70264598920118       -1.10469961774101       -1.80058398277183
H            5.61572991812895       -0.91093980283486        0.78061639619050
