21
 energy: -30.830601010034 gnorm: 0.000353490735 xtb: 6.5.1 (579679a)
C           -2.33401721753738        0.38882994870739        0.69872174692274
N           -2.04416121268320       -0.66481980675050       -0.30282858628782
C           -0.96409619896757       -0.28388013331187       -1.27079085207955
C            0.34212988894235       -0.07702005925090       -0.55107463215479
C            1.03250041862710       -1.17492052941648       -0.03777876520463
C            2.23624926110966       -0.99902150970176        0.62698416798590
C            2.73247537496039        0.28704083840141        0.75845876358296
F            3.89317235644262        0.46385909827681        1.39509949134312
C            2.07416856460436        1.39596945214105        0.25619862715068
C            0.86673045645764        1.20521237494708       -0.39989474269757
H           -3.11692829631815        0.01910031638208        1.35570419962255
H           -2.66397282594904        1.28280872052745        0.17569906335083
H           -1.42565984219889        0.58992905774514        1.26136413253778
H           -2.88974355204406       -0.86143195084315       -0.82953507319186
H           -1.77551024385146       -1.51992230096307        0.17855875901444
H           -0.90007957627760       -1.10476286389112       -1.98726141809937
H           -1.29587389857566        0.62228701770895       -1.77872382275249
H            0.62604213578561       -2.17100332679821       -0.16144598540190
H            2.78008661179067       -1.84170940968897        1.03400982361339
H            2.49497491505108        2.38572566099807        0.37859850370315
H            0.33151188063162        2.05773040478072       -0.80006240095746
