42
 energy: -83.673643898254 gnorm: 0.000367403429 xtb: 6.5.1 (579679a)
C            6.75619425326534       -1.62815482450138        0.88428341219322
O            5.58403820129721       -0.92174828871890        1.25327250468335
C            4.58078855915090       -0.91838490889555        0.32889197216657
O            4.72885111430239       -1.50868915439902       -0.73843624044357
C            3.39134708199126       -0.18713107513829        0.72138267798309
N            2.40565990481765       -0.20141025028469       -0.25641321535400
C            1.28692460551254        0.39387838727965       -0.05566273927349
C            0.20434001589455        0.44998556461270       -1.12469915104879
C            0.57330302544419        1.61525262502350       -2.06863640310081
C            0.20820732109501       -0.87929038088453       -1.89915196250767
N           -1.06701776118747        0.68288397894399       -0.44428040013876
C           -2.14247174955071        0.79251300791036       -1.17514654838741
O           -2.29303752083650        0.76280784063449       -2.41951477696154
C           -3.43905300800518        1.01732706964944       -0.31176976612067
C           -4.20694348270565        2.23909441514025       -0.81716143768135
N           -3.14915707382069        1.14859343845864        1.12644143797785
N           -3.74941397325617        0.02366653845922        1.76436946589777
C           -4.38192633547085       -0.61817967211518        0.86810967735188
C           -5.20628099412761       -1.83558525314469        1.09809392473412
O           -4.29675560876263       -0.13894453896686       -0.39095447387073
N            1.03001476267897        1.07033264547788        1.11456319542418
C            1.89884924180798        1.16714213318555        2.15835623688544
O            1.58113341188583        1.78603081581484        3.17849910148916
C            3.23043577007444        0.47772585912705        1.96445984552031
O            4.07108242568526        0.53337848400010        2.88831375692434
H            7.21257135901408       -1.18813201671107       -0.00868383461534
H            6.53108742196588       -2.68008462853163        0.67942813406159
H            7.45048717848483       -1.55876075057640        1.72108402755566
H            1.58054409144077        1.46714517472275       -2.45998880952928
H            0.54271587367941        2.55854402158535       -1.52295692217380
H           -0.12497558353561        1.66648260954292       -2.90272907331289
H            1.21450457019973       -1.08886725061995       -2.26471546026713
H           -0.10250159177076       -1.69286623621175       -1.24266836958647
H           -0.47331030605049       -0.82875351592009       -2.74699596160567
H           -2.13065679517334        1.04620390785978        1.26491447696871
H           -4.37526950096429        2.14180048669366       -1.88906257096192
H           -3.62239352089274        3.13672778668289       -0.62440742031294
H           -5.16430472994647        2.31970634340715       -0.30526992622264
H           -4.85635096848610       -2.65226757708766        0.46725633782798
H           -6.24563906532996       -1.63409253913872        0.84016419281321
H           -5.14647734193392       -2.13026782639854        2.14295691276479
H            0.11085672212989        1.49012555403473        1.20446717225013
