42
 energy: -83.624481609822 gnorm: 0.000639120286 xtb: 6.5.1 (579679a)
C           -4.83788673419489        3.00745840731502       -0.74241852552505
O           -4.09615918971369        2.14494462561225        0.09816104386371
C           -3.22554305691605        1.29861048543147       -0.54071346933044
O           -3.12840921610688        1.35349668017658       -1.76972129432568
C           -2.47179486698376        0.40181814515449        0.32463180476194
C           -2.59475848620206        0.42467990716314        1.74815748908405
O           -3.46766018508888        1.06745425284833        2.41172113867621
C           -1.54556837704674       -0.33590058627936        2.48422822089734
O           -1.37920990747840       -0.29276846483396        3.71275943682379
N           -0.63400187456153       -1.03598832242369        1.71555880619414
C           -0.97776076077154       -1.45597721994743        0.35842475645622
C           -1.92128796738648       -2.68519781352298        0.44592201271774
C            0.35055777184696       -1.78816119985085       -0.40523563670039
C            1.14044624930491       -2.95022153880351        0.21335165510427
C            0.04496431103000       -2.09406017680687       -1.87769098050634
N            1.13362200314343       -0.55550674172285       -0.31597154203517
C            2.40245814990557       -0.39989795217879       -0.79255469684373
O            2.96972863558091       -1.19158291500145       -1.56436768165588
C            2.99237686595583        0.84355908150168       -0.32463885382281
N            2.41992391790650        1.72369729704714        0.47999566988784
N            3.31850132545107        2.73997851761403        0.65064229602605
C            4.36922599898332        2.43701010968581       -0.03943204698501
C            5.61187411860895        3.23429482470112       -0.17440414798650
O            4.24720932807296        1.25815012053073       -0.68749469685636
N           -1.61342103463554       -0.39888066336745       -0.36686140414984
H           -4.17684990317917        3.66149790923251       -1.32291366304767
H           -5.46046676523669        2.43700801447866       -1.44109124843616
H           -5.47730043458011        3.61523806416589       -0.10174909549043
H           -0.07895846261669       -1.69104236183016        2.24372105877058
H           -1.45533815319395       -3.49995575275575        0.99535255533378
H           -2.83241404284019       -2.39157600028414        0.96717400231564
H           -2.18796543277076       -3.02780537582625       -0.55124153538398
H            0.56077691527217       -3.87005097047874        0.17079608318483
H            2.06440562654481       -3.10524824706846       -0.34326081270524
H            1.39679755598529       -2.74305676889309        1.25128473342088
H           -0.57801952452487       -1.30172599269270       -2.29670574227919
H            0.96824964851354       -2.16609638140866       -2.45032470821747
H           -0.48278819383710       -3.04245058868146       -1.96325421788665
H            0.85554560215045        0.07209285007487        0.43434114398791
H            5.55567963191690        4.10560154723794        0.47301112336064
H            6.47940417616158        2.63413367234039        0.09878720247276
H            5.74181373753889        3.56243152235638       -1.20597423317139
