38
 energy: -79.627195034746 gnorm: 0.000606954165 xtb: 6.5.1 (579679a)
C           -6.52915011040047        0.68130237013715       -0.45239367450348
O           -5.24748349035270        0.33612643486752       -0.95506682291413
C           -4.26432970991783        0.20487461495934       -0.02713855052220
O           -4.50409084868827        0.38604995074280        1.16190666239566
C           -2.96322169987014       -0.15891985258259       -0.56560599915781
N           -1.99134986757636       -0.26831623897835        0.41491703276660
C           -0.79146688978801       -0.58395331861606        0.10614620892739
C            0.27100645100549       -0.74632009512589        1.17385745659330
C            0.50807653886113       -2.23722346918642        1.43481668554527
C           -0.15658101851355       -0.03112547003197        2.45829280150950
N            1.53780434232281       -0.18584047405292        0.68365420854799
C            1.65633061278360        1.08936686649266        0.26534026979064
O            0.74145985717525        1.89220513549309        0.18265923468577
C            3.04667621316945        1.43784751703877       -0.13101568439216
N            3.47110347660240        2.56230729160504       -0.61780950937849
N            4.80832886514449        2.41391482052042       -0.84361681111089
C            5.11601958922908        1.20843447364271       -0.48109493553658
C            6.44208673303833        0.55528622719704       -0.52848092752843
O            4.04714970718293        0.53666153723652       -0.02176944655130
N           -0.41198277824092       -0.84896561252905       -1.19436260379853
C           -1.26529320087499       -0.77426742495769       -2.26365189128598
O           -0.85285882051850       -1.02777585798128       -3.39375059758821
C           -2.69012557865549       -0.37637604049529       -1.94163500256332
O           -3.50306334988185       -0.27700889471285       -2.88006337389772
H           -6.90641547431006       -0.09841894085433        0.21648714229278
H           -7.19279073915225        0.78282875491903       -1.31028610564074
H           -6.48968504065521        1.62635326373044        0.09855499225706
H            1.27231712572354       -2.36859854989779        2.19815448042859
H           -0.41545136713678       -2.70185318178250        1.77742906646557
H            0.83440136042146       -2.73225217983018        0.52174858431125
H           -0.31811605003051        1.02870118067142        2.26384280222102
H           -1.08814044112559       -0.46769207043016        2.81666880327795
H            0.61151755450321       -0.14403335562234        3.22011259307925
H            2.36763929716668       -0.74048714944259        0.78990517061592
H            6.69835124039811        0.16366528598440        0.45494187976943
H            6.41981396226672       -0.28105482601466       -1.22711903918424
H            7.19465122407362        1.27269470731303       -0.84587703735709
H            0.53686332462040       -1.12813742942226       -1.37861806256708
