42
 energy: -82.997871290103 gnorm: 0.000989019148 xtb: 6.5.1 (579679a)
C           -3.34155274740143       -0.29430689441336       -3.28416793593550
O           -2.87915995032436       -0.11610913017834       -1.94364584679132
C           -3.76463430423972       -0.41171897399199       -0.96541470289419
O           -4.88359932536633       -0.81111321040425       -1.20635484565066
C           -3.19938158159858       -0.18989365440123        0.36349426603245
N           -1.89841130150440        0.28666839822797        0.40722547030415
C           -1.21697590948251        0.52757046582220        1.49441271212254
C            0.19894158578689        1.07013804246684        1.40342558912849
C            0.15925923861538        2.48268155906345        0.79174903549874
C            0.86155611100746        1.19665669213836        2.77998113257808
N            1.00311371399167        0.14590602345725        0.56822572067294
C            1.62853850474814       -0.99684591755847        1.23792927383508
C            1.01520177838827        0.24315545340940       -0.78577607557482
O            0.17876618231113        0.86397913848186       -1.43364657491721
C            2.13508558338763       -0.41160487132781       -1.50397315957833
N            2.18083458051073       -0.60365207751976       -2.78754669782982
N            3.41280215233143       -1.10213403749860       -3.07151925179823
C            4.05598296331674       -1.17264295660348       -1.94680889470942
C            5.44176374600582       -1.63785239219228       -1.72308040133764
O            3.30419101880744       -0.75277753839012       -0.91697859457437
N           -1.82808828058579        0.31703637139180        2.67790360845309
C           -3.13768599592151       -0.13633341289495        2.84203215284880
O           -3.57661570343469       -0.26896227356008        3.96509787014985
C           -3.90903966816747       -0.43208254373036        1.56940275285999
O           -5.06249702308990       -0.85078605749951        1.65763084399453
H           -3.66125011645642       -1.32828317518296       -3.44092698060157
H           -2.50408479154625       -0.05682776250048       -3.93739764685326
H           -4.17955606149984        0.37796003391855       -3.48725403808515
H           -0.21749428986548        3.17519039752493        1.54264469116630
H            1.16639464226262        2.78234145625935        0.50924918368850
H           -0.48928782499460        2.53870502819600       -0.07825297378840
H            1.89800671444068        1.50093852113250        2.64693738178346
H            0.35247038595024        1.96514984454336        3.35914286879358
H            0.84004719624567        0.26761148742483        3.34356991194721
H           -1.43401948774928        0.46114175117924       -0.48921817780293
H            1.77305846878844       -1.79758506378802        0.51756593560675
H            2.58746321853293       -0.71392151061059        1.67014695423351
H            0.95942321372138       -1.35725701349344        2.01739811741613
H            5.89422078644976       -1.90965351765589       -2.67409455758608
H            6.02669523670542       -0.84925965778637       -1.24987639938639
H            5.44179390387642       -2.50188237721425       -1.05810368980224
H           -1.33227856297276        0.50065535574967        3.53538797240919
