42
 energy: -82.990965465720 gnorm: 0.000686480543 xtb: 6.5.1 (579679a)
C           -2.19038135067265        3.14242633727533        0.61938475980131
O           -1.87841347132754        1.74720893157356        0.58879902110408
C           -2.84217859883093        0.87411156359102        0.35412538894416
O           -4.03310663832279        1.41410303899646        0.22085976923833
C           -5.14377591361888        0.82038539482076       -0.45885165015272
C           -2.47081078592986       -0.47623595386594        0.25735830733101
N           -1.09141535793343       -0.65648499332641        0.15110421973870
C           -0.58825047380309       -1.82517370187307        0.03616510277741
C            0.91158460176167       -2.00424648568932       -0.09498783845845
C            1.24784658798427       -2.62090499744915       -1.46089571308425
C            1.44191846346007       -2.87215236966229        1.05514389923403
N            1.49109206891676       -0.66728852424173       -0.00639497464316
C            2.80708998396532       -0.40787355999733       -0.08883011262188
O            3.69037891130377       -1.23735610634902       -0.23156308145121
C            3.06895960179826        1.05221430675491        0.02274490297972
N            2.17873064849887        1.98384534512442        0.18914566818103
N            2.85391213777730        3.16686427310259        0.24305206475105
C            4.11323578971245        2.88076672435229        0.10593967233243
C            5.25732340666551        3.81888567598919        0.09021331656117
O            4.31269045846347        1.56220241116612       -0.03711936053016
N           -1.36183384758911       -2.96410254311147        0.00981504420751
C           -2.72471894769357       -2.96290644349329        0.15383154356356
O           -3.36167162093329       -3.99730163664906        0.09020770121452
C           -3.35401273357818       -1.60035959320723        0.39312812756043
O           -4.53702089391875       -1.54344396357811        0.72419512177867
H           -1.24871139735295        3.65901275755609        0.79553072985685
H           -2.62152059702912        3.45420619422267       -0.33388331661281
H           -2.89496727403311        3.35525651684831        1.42584256591799
H           -5.79397561325462        0.31726485424147        0.25870887506634
H           -4.80214128269507        0.11569094893828       -1.21748340261594
H           -5.68008452813985        1.64563335156157       -0.92852199075676
H            0.88866370220919       -1.97244191584517       -2.25853620045140
H            0.77531266610017       -3.59630240456007       -1.55475143946793
H            2.32543054920505       -2.74225749116352       -1.55639822482305
H            0.97546505467835       -3.85447768092772        1.02550778646663
H            2.51949991773016       -2.99340444794366        0.95952462298027
H            1.21776100789152       -2.39919711789974        2.01034811244797
H            0.83400817823147        0.10050305648982        0.09377131425585
H            5.72421676208045        3.81946277708427       -0.89553969646773
H            4.91104968604709        4.82241232829843        0.32603967608701
H            6.00588822427801        3.50672580062973        0.81834865662364
H           -0.93306508211142       -3.86527265777330       -0.13468996885818
