20
 energy: -37.644340374868 gnorm: 0.000679713771 xtb: 6.5.1 (579679a)
C            3.51805918260747       -0.56835406457043       -0.07945665630523
O            2.14200636762501       -0.12890885794535       -0.10783435498078
C            1.21838054152672       -1.04363901185575        0.06881468550266
O            1.37604974605265       -2.21346992279094        0.25246394630338
C           -0.14984520337519       -0.40440839391987        0.01654642173338
O           -1.25983147214244       -1.10974566294322        0.15059666105112
C           -2.27203801902339       -0.23768875151104        0.06184694042526
C           -3.67161410427553       -0.67998619831467        0.16575857262982
N           -1.82380594181149        0.97575715255172       -0.12147154889419
N           -0.49057279509274        0.85559727933579       -0.14792664839905
C            0.33398805836936        2.02968042289469       -0.33469745162981
H            4.12035577839422        0.33082545919625       -0.17894234926543
H            3.69550932543521       -1.25108225336668       -0.91157109224103
H            3.71779795953614       -1.07158574356747        0.86747739864918
H           -3.79609040445661       -1.30272147174348        1.05216381332770
H           -4.32923673996180        0.18464847504794        0.21605740097283
H           -3.92934397610713       -1.28535615983204       -0.70539995052782
H           -0.32423626337888        2.89041599367630       -0.41755794978212
H            0.92450458458568        1.90181867236677       -1.24032497801754
H            0.99996437549277        2.12820703729151        0.52076813944777
