42
 energy: -82.875654720784 gnorm: 0.000874610767 xtb: 6.5.1 (579679a)
C            6.43297412684637        0.88622944245140        1.53301899057899
O            5.25718224680533        0.96162258947597        0.71988389177304
C            4.31928722355610        0.04896313035334        0.94091661263980
O            4.41117245663416       -0.82022623891231        1.77494828951450
C            3.11943575452706        0.21234520157255        0.05400285644719
N            2.09100875549996       -0.59619649918752        0.35067185775579
C            0.94505893265817       -0.44928907202875       -0.31581770280982
C           -0.19268579973226       -1.36462432624095        0.07816394099084
C            0.00269971459591       -2.68676096857267       -0.70587225659995
C           -0.19888830292398       -1.64790603763135        1.58716734776046
N           -1.41141870007824       -0.73101212114649       -0.32314089328266
C           -2.72815231320933       -1.30259184443082       -0.16079934154002
C           -3.26337142450640       -1.43519916059799       -1.67268533483516
O           -2.83864779784752       -2.40339602639089        0.46990391771919
C           -3.60233670111182       -0.13972119871526        0.35744879082229
N           -4.51747835612304       -0.18047736230794        1.26231161192190
N           -4.98689448885155        1.10229055885603        1.37763683647736
C           -4.33406510819419        1.82671778171122        0.52839207313424
C           -4.46866444204009        3.27668290112814        0.27169557322174
O           -3.43380143410644        1.09304805168588       -0.15808862287133
N            0.70856054342358        0.42545823816580       -1.26753212099970
C            1.70307711114478        1.25100424748970       -1.69568047609300
O            1.61727048278991        2.04185300289898       -2.62886697832052
C            2.98899162486528        1.14506532601071       -0.96478490341596
O            3.96160452617207        1.92141380925654       -1.40446026256673
H            6.96946415337366       -0.04302324418902        1.32849795120682
H            6.16015840903991        0.92255423204226        2.59019091594304
H            7.04718112993403        1.74455797252351        1.26953919611903
H            0.96201029885941       -3.12105268617786       -0.43189947535298
H           -0.79688615420736       -3.38070368416330       -0.45621661053947
H           -0.01142484379415       -2.48018816803245       -1.77376985090137
H           -0.39435698442493       -0.72594245045191        2.13190221376491
H            0.77997765829132       -2.03198998919259        1.86925664000247
H           -0.96070564880982       -2.38340136278907        1.83724253197242
H           -1.31401681793220        0.06877909932308       -0.94215517837651
H           -3.19793632411521       -0.47826888005562       -2.17738465694617
H           -2.64369867821338       -2.18071864591365       -2.15943382468666
H           -4.29190049793898       -1.77559683703074       -1.60475459646609
H           -4.73475148822806        3.44686621944794       -0.77121906360418
H           -5.23840385948850        3.69177573106874        0.91784357706589
H           -3.51999904795594        3.77810227519210        0.46273419571020
H            3.60337206482882        2.51295999349616       -2.09880966231176
