42
 energy: -82.934398189419 gnorm: 0.000472144017 xtb: 6.5.1 (579679a)
C            3.73948225820836        2.60374107032665        2.62816332817906
C            4.13773670058932        1.55011515672617        1.66913177564841
N            5.33251679417315        1.10884575091936        1.42991040932249
N            5.21034855158802        0.14790286870346        0.46899633400183
C            3.94823236145030        0.06213434106473        0.18297419855980
C            3.31119534331759       -0.83669897778710       -0.81958731499008
O            3.98256595109640       -1.58335272579537       -1.51948980379151
N            1.97813835261608       -0.71740871420918       -0.85670140611153
C            1.10943854368802       -1.46779162035064       -1.76208192103876
C            1.23756232201583       -2.97409496199675       -1.48827217633574
C            1.46044572263114       -1.14081670727551       -3.21931628669157
C           -0.32582847584165       -1.05193096126288       -1.47661345258541
N           -0.54315857047183       -0.31957327222865       -0.40873785458192
C           -1.84524579588719        0.02840248844961       -0.12502492474324
C           -1.95645775843432        0.83646624533885        1.04145117770027
O           -1.17131424734767        1.32476942077549        1.77953769892439
O           -3.44871699537699        1.17715993230147        1.36829285412319
C           -3.56250316913787        2.45008857414458        2.04909075866797
C           -4.13147501795886        0.09800224187275        2.05641279810152
C           -2.85227402826101       -0.38707597242637       -0.97284472765677
O           -4.14909348735361       -0.12951127802998       -0.82456553586636
C           -2.52390465405084       -1.19992512430671       -2.16265213485056
O           -3.46672842153007       -1.54075423029638       -2.89153863137219
N           -1.22803305124365       -1.50955998409286       -2.34851729543708
O            3.21516610891506        0.93008618711082        0.91443625230299
H            3.23804425582971        3.41581549536881        2.10237054730774
H            4.62096959506886        2.98778953407141        3.13597484198401
H            3.04375772033278        2.19749354065895        3.36178156733962
H            1.50536492600428       -0.09608206674750       -0.21125103798157
H            0.50551740304209       -3.50865551542202       -2.09238132263337
H            1.04352657447640       -3.17568521301368       -0.43569337618496
H            2.23684928830428       -3.32495428853369       -1.74152714272443
H            0.73775376193494       -1.62486703717767       -3.87514722249999
H            1.41677222850699       -0.06403511974523       -3.37796957176726
H            2.46001963672335       -1.49802499378394       -3.46166777719064
H           -3.08128381678939        2.39319644094046        3.02584305638976
H           -4.62391395170224        2.66229696275219        2.14763319171014
H           -3.07581417349055        3.19042708589072        1.41823714797890
H           -3.93186191235764       -0.81680180962124        1.50441187596067
H           -3.76721082537521        0.02649848566906        3.08149364145750
H           -5.19374470273251        0.33079785190344        2.03310017303264
H           -4.59284234517568       -0.55443010090940       -1.60150371165203
