43
 energy: -83.190148512018 gnorm: 0.000457068079 xtb: 6.5.1 (579679a)
C            6.26924779281500        0.41587509598863       -1.55310474146243
O            4.98742265398336        0.25422509785472       -0.93389713963080
C            4.71329601287025       -0.94408259370340       -0.44141181465638
O            5.48575758668680       -1.88482313151272       -0.50500861943881
C            3.38262863636754       -1.04007448707170        0.20286011914137
N            2.59701354874505        0.08703333453995        0.19233276060482
C            1.43974141409275        0.03696067321421        0.75204019381839
C            0.56713368663308        1.27144950472982        0.79857899831144
C            0.66192063272127        1.90243295103053        2.19039491988341
C            0.98189278742499        2.26282183276913       -0.29096050584734
N           -0.83313634965095        0.86950787556653        0.58963456582794
C           -1.20289280907201        0.14109352668190       -0.47332749192868
O           -0.46455740325807       -0.35964323766471       -1.29471301288866
C           -2.69256473199187       -0.03860341660887       -0.55795795200433
N           -3.35617207927544       -0.70396575370752       -1.45245417852239
N           -4.64859287434168       -0.54998732954828       -1.11087204429665
C           -5.69187738462098       -1.17835786068831       -1.89675276822031
C           -4.74510147648790        0.19427175740388       -0.02930119366089
C           -5.94866491466629        0.62199251474938        0.70005776405419
O           -3.52440072707631        0.53005857673384        0.33816273560333
N            0.97311873964027       -1.08270009006563        1.37557258139152
C            1.65395221229481       -2.28534538082562        1.43439868088979
O            1.16734127348379       -3.25618040308487        1.98421316675908
C            2.96816826027566       -2.21521157904448        0.78250527273751
O            3.69298967671007       -3.33249563533094        0.80578147807962
H            7.06003009128051        0.17589216195085       -0.83889918530029
H            6.35016120562741       -0.24348065147282       -2.42012529049021
H            6.33588472458805        1.45754296918363       -1.85946080041536
H            0.02463525013774        2.78289832331694        2.24124407917766
H            0.34412422903604        1.18951440052504        2.94881843481309
H            1.69145594647664        2.19758515327915        2.38847721507540
H            0.92482066277383        1.78904771955944       -1.26991070393949
H            0.32413762001711        3.12870603534208       -0.27006916597694
H            2.00760723822274        2.58209516094763       -0.11238352014784
H           -1.53597256477578        1.28670790371028        1.17322486275142
H           -6.53383080535936       -0.49423072368130       -1.96827222550352
H           -6.00221793629426       -2.09776013783317       -1.40101959201998
H           -5.28645080104576       -1.39819152539347       -2.88140362112467
H           -6.62766152061892        1.14503232807607        0.02460364641756
H           -5.66266613534116        1.27772310451794        1.51985927899958
H           -6.47436114567759       -0.25003202647078        1.09309330008479
H            0.06543160763454       -1.05687822447128        1.81109843046747
H            4.56120816901241       -3.18842181349129        0.36026208258643
