47
 energy: -80.223604558660 gnorm: 0.000465110861 xtb: 6.5.1 (579679a)
C           -3.27707123487078       -1.08664561106332       -2.53633388653882
N           -2.16275022449456       -0.71394384014457       -1.65798490485956
C           -0.95717578702578       -0.57704701433584       -2.34765823854622
O           -0.83011120997725       -1.05421027619370       -3.50044483257206
C            0.10212313705844        0.05210514183514       -1.65465798276647
O            1.35281657848797        0.07711272207774       -2.30750230246833
C           -0.08617360153915        0.54584636784540       -0.36880704764563
C            1.04573893785560        1.09352976921126        0.45492401003432
O            1.09021079018466        1.00518366275496        1.68108010298225
N            2.00588135046591        1.75683624884534       -0.23940880117100
C            3.22017109407425        2.20181137964862        0.42794346617187
C            4.21036275167075        1.06097993649693        0.53739546325098
C            5.13070303170657        0.82657019047457       -0.48150919818520
C            6.01753755686202       -0.23902954437179       -0.40324031772708
C            5.95774770051317       -1.05943163800225        0.70814991403178
F            6.81386758414277       -2.09490412149220        0.79280989055950
C            5.05681795376397       -0.85765139822876        1.73825550200594
C            4.17869762463796        0.21247324994832        1.64247421098530
N           -1.25455095994736        0.53862896460439        0.24326775738698
C           -2.44744923981583        0.12273007860339       -0.46721083058723
C           -3.19101704857649        1.41096097118411       -0.90641472244623
C           -3.27937358619949       -0.69437269240066        0.59320936296960
C           -3.35236715364824        0.07151964342684        1.92710086938537
C           -2.58184312042566       -2.03977618886219        0.82596176409276
N           -4.64827924575150       -0.95676047538746        0.13478705276260
H           -4.18278102895306       -1.25094137666902       -1.95735909652598
H           -3.01992708549001       -2.01447876070871       -3.05399625132407
H           -3.46532104839982       -0.31261075741955       -3.28988516180249
H            1.19351703901520       -0.30260305923650       -3.18772491838583
H            2.05047066555578        1.67512110995716       -1.24377588619547
H            3.64624810477488        3.02466390432476       -0.15106137957167
H            2.95186086469802        2.56780305819645        1.42456646007383
H            5.16442139047281        1.48324595686906       -1.34314379710247
H            6.74190051165835       -0.42825544174494       -1.18413262934629
H            5.04900550541191       -1.52068079492698        2.59368435584010
H            3.45956485381239        0.39094542803539        2.43481439992068
H           -2.60725657987421        1.91563948527255       -1.67626574897242
H           -4.17983512329263        1.19171047795838       -1.30283781330138
H           -3.28946258596069        2.08194769727185       -0.05507305429265
H           -3.90425388160355        1.00315975829102        1.80684354655099
H           -2.35134427965278        0.30185398792137        2.29379656631069
H           -3.87073745271269       -0.53669742969305        2.66850491798899
H           -2.58797653212127       -2.63686722170087       -0.08651732310389
H           -1.54707321814110       -1.87000785535553        1.12776945327528
H           -3.08868174431423       -2.60071429966639        1.61112586084841
H           -5.07259904963963       -1.64890118751743        0.73675661234485
H           -5.20425300439715       -0.11584620593789        0.22034058566774
