47
 energy: -79.493509172343 gnorm: 0.000376939649 xtb: 6.5.1 (579679a)
C           -3.88101967120785       -1.53963029335820        1.26634737510332
N           -2.67406333300850       -1.02076260232753        0.61508088593640
C           -2.61816808808171        0.08752418733262       -0.12355189753818
C           -3.78851123457903        0.80328160059531       -0.73103015832086
C           -3.32861948592889        1.51326572846476       -2.01998422164536
C           -4.25872241845654        1.84709218138674        0.30221804403898
N           -4.87400599390693       -0.11003904054323       -1.01586220614003
N           -1.43836819369502        0.73386782679523       -0.25360654674537
C           -0.29741783084860        0.18697234498123       -0.01128339628103
C            0.93054279974495        1.08208228318483       -0.05215384177308
O            1.04046757130107        1.91448952137723       -0.93259214671519
N            1.79986860796906        0.87915270440142        0.94090480837980
C            3.03944027675575        1.63783161148924        1.02615505732663
C            4.23901989682225        0.81759547627143        0.59918021227876
C            5.51184671148003        1.35149209643496        0.79896916607419
C            6.64176447317184        0.64486961905596        0.41549111022442
C            6.47215469690391       -0.60045619921044       -0.16414762570104
F            7.56026455766793       -1.29080462922159       -0.53672349977153
C            5.22518232116978       -1.15922605306696       -0.37299881957806
C            4.10402041086936       -0.43672682994331        0.01255705380635
C           -0.24833932837671       -1.29576297217649        0.15033850145817
O            0.90991557557954       -1.71152560709541        0.79971112946003
C           -1.48737037345682       -1.74252626267640        0.91839598615030
C           -0.36294669900794       -1.96669165993255       -1.24905993532339
O           -1.50471043137096       -2.69736892873392        1.63698429727801
H           -4.75653693363626       -1.18575942935112        0.72708945504713
H           -3.83070391759026       -2.62703377480100        1.25651820961502
H           -3.89381464258954       -1.18005763522432        2.29473576459507
H           -2.55133757322227        2.24392608800317       -1.80222365335691
H           -4.18428591862153        2.01986845128647       -2.46121491687239
H           -2.94519999835097        0.78142874578420       -2.72853820198793
H           -3.43578564850024        2.50639036585414        0.57306329932611
H           -4.63122231299983        1.34750173883223        1.19430493885583
H           -5.06109815445049        2.43460640529221       -0.14002055115498
H           -4.62216823670368       -0.73340380029004       -1.76890657319261
H           -5.69750387092320        0.40939455995187       -1.28472096964774
H            1.64890252352254        0.14011636716780        1.60622819256983
H            3.16430157281181        1.97625410639680        2.05875903295181
H            2.93628187517265        2.51776298741960        0.38163897102277
H            5.62073840601208        2.32663841357018        1.25896396295845
H            7.63450735751641        1.04888133936711        0.56576615306102
H            5.13024876787157       -2.13775925581166       -0.82475081692305
H            3.12068424014922       -0.86287940069387       -0.14132788430746
H            0.77627504741850       -2.57987647172618        1.20968454967657
H            0.54626331918828       -1.74511024667491       -1.80403973234711
H           -0.45198401336662       -3.04228912457028       -1.11615535589568
H           -1.22878670621994       -1.58659453326039       -1.78477220597149
