47
 energy: -80.187992162070 gnorm: 0.000280229146 xtb: 6.5.1 (579679a)
C           -4.32305487265454       -2.04464577542093       -0.92147206826170
N           -3.04847988483225       -1.33514601855816       -0.85539115681183
C           -2.87871081804342       -0.11835483022104       -0.23220578920026
C           -4.03542331578659        0.61677728385077        0.43861578992683
C           -4.83242665244482        1.37758189547724       -0.63150855429846
C           -3.46724149717943        1.62280917236490        1.45483296844274
N           -4.92283845740837       -0.32020773831163        1.12383484797588
N           -1.74134612985988        0.49270344420048       -0.22125836241676
C           -0.61103683232642       -0.04277457759612       -0.79010861740880
C            0.58581691070933        0.82071593455565       -0.66863179479993
O            0.50953245653998        1.97759953590885       -0.23072353876605
N            1.76188316179609        0.29136746213700       -1.08868476207446
C            3.02123148012587        0.95448947668496       -0.84544946147484
C            3.72368056355171        0.50393150663194        0.50764062014801
C            2.75277389515254        0.81244756021857        1.67250306799222
C            4.98197994008070        1.32427361416680        0.64844020714428
C            6.23494132545857        0.78128382788484        0.58509650224100
C            6.39828949688312       -0.59678307581171        0.44395969458864
F            7.67198039738720       -1.12016985144177        0.39556197985795
C            5.30523057675094       -1.46423017115688        0.40356958531877
C            4.03271395643609       -0.97087002961154        0.46005863700481
C           -0.71439517925621       -1.28107083446249       -1.39282332949993
O            0.33261728714377       -1.92441050583119       -1.98834192189698
C           -1.96105401021428       -1.98119831503349       -1.44632310191069
O           -2.07736781668840       -3.08931817652497       -1.99288080247000
H           -5.13140561914193       -1.35551346529546       -1.14767648429301
H           -4.52956563905586       -2.53619555628404        0.02907816195112
H           -4.25401155391023       -2.79528425608287       -1.70957378379514
H           -5.30181241852081        0.69093711894191       -1.33377688510582
H           -4.17037647866660        2.04498898523804       -1.18310463340415
H           -5.61228165151467        1.97054932505439       -0.15592637323818
H           -4.28738218538313        2.12947496701527        1.96017621617069
H           -2.84497285453548        2.36298457868266        0.95190243253080
H           -2.86274550206741        1.10312030276961        2.19732287084204
H           -5.77450819001340        0.15644749377618        1.38172016668792
H           -4.48606668821877       -0.64275671393527        1.97776621308343
H            1.80738505540814       -0.68342546148064       -1.34116472004937
H            3.70422567591951        0.72424817335306       -1.66791594814366
H            2.85401922518486        2.03636716353384       -0.81573197024686
H            1.86480560307142        0.18315376779439        1.60913472331544
H            2.44587889977864        1.85909699595999        1.65504552653965
H            3.25372627715704        0.60799074196345        2.61885484426768
H            4.85538947085879        2.39419574590059        0.78069483733675
H            7.11293718106519        1.41456736688672        0.66778492456020
H            5.47834529941013       -2.53445327631349        0.34645654733713
H            3.18373829639794       -1.64721111336086        0.44975060429869
H           -0.00462018454324       -2.77008269821857       -2.33598790999593
