47
 energy: -80.164050475474 gnorm: 0.000553501988 xtb: 6.5.1 (579679a)
C           -3.59567512562003        1.27158243791083       -1.79680748992096
N           -2.45850902368089        0.39352363471912       -1.53895051016641
C           -1.53025019383451        0.34540044249611       -2.55852147433306
O           -1.71678155783507        0.96282122280750       -3.65518371547087
C           -0.30897282651658       -0.29477152851773       -2.21064003683310
O            0.77718340528980        0.05457408389725       -2.98672548199828
C           -0.20849579255270       -1.06821328318868       -1.05858009163004
C            0.97133643518361       -1.50287729783528       -0.35864840013036
O            0.95167514395648       -2.03409885558036        0.76877095830188
N            2.17580786139560       -1.40704929421699       -1.05293530711494
C            3.41587118553365       -1.59205106272938       -0.31297924297076
C            3.80240409245220       -0.33378792663088        0.43808711595294
C            4.66431139774001        0.59383963183917       -0.14357861717506
C            5.01131188702005        1.75986255339606        0.52614298260420
C            4.47647807124788        1.97478851588219        1.78285780271737
F            4.81117607622096        3.10056342647447        2.44292025036995
C            3.61737553561974        1.07800568148215        2.39211460520596
C            3.28093063399053       -0.08040392802150        1.70613069977413
N           -1.47941744011419       -1.50155111745855       -0.50041696303398
C           -2.08634499532555       -2.58847211524231       -1.30101019494659
C           -2.35729096833265       -0.36805468626167       -0.39399215469550
C           -2.59422425650289        0.20418291004468        0.99605168814328
C           -2.35635777907164        1.72775221183194        1.06664315204228
C           -1.66447271129970       -0.48309034676652        2.00938910301387
N           -3.97785699489021       -0.09915088969223        1.42551637505054
H           -3.27607247318368        2.31552576263199       -1.81182685771833
H           -4.00829550506414        1.02666376527750       -2.77903213736604
H           -4.36273186834765        1.12897086582312       -1.04103895009854
H            0.43360909255181        0.63109350468583       -3.69384807106323
H            2.23355853112181       -0.70953351644683       -1.78227254238537
H            4.20214875995089       -1.85801377212484       -1.02598026735144
H            3.28007590512021       -2.42341719748895        0.38724143799815
H            5.08032236679758        0.40371479914788       -1.12647011382459
H            5.68511810916929        2.48362329357566        0.08690020546020
H            3.22653804480133        1.28471091197226        3.38022094570120
H            2.60635959723618       -0.79768198376108        2.16234900706864
H           -1.41301077112838       -3.44770624330705       -1.29978390217221
H           -3.03296625915138       -2.86845614596401       -0.83604324656832
H           -2.27325616277817       -2.28369573928191       -2.33921561283586
H           -2.32125065383836        2.04934498249355        2.10773403496773
H           -1.41127334228207        1.98608884139375        0.58814914760025
H           -3.16028249793689        2.27350954304105        0.57787928371425
H           -1.88672011197100       -0.12568062373213        3.01529613583541
H           -1.80681733870203       -1.56376111106874        1.98121079446729
H           -0.62150733290750       -0.26549922024445        1.78059066377840
H           -4.62890200012725        0.25858199246962        0.73852555981995
H           -4.16585514943597        0.38829487026931        2.29166943221985
