46
 energy: -87.072681550240 gnorm: 0.000837985183 xtb: 6.5.1 (579679a)
C           -5.61472265071411       -1.21028437215875        2.63145700346495
O           -4.79169545930476       -1.04875728738800        1.48807500489826
C           -3.66612864296863       -0.28734254946475        1.67200448593392
O           -3.42862385942686        0.19836166981643        2.77758903405354
C           -2.85981214764489       -0.13441466018923        0.49326196434834
C           -3.11295660772869       -0.70295346861660       -0.75750758222066
O           -3.98154352477823       -1.52913851062250       -1.09742720872165
C           -2.17581728541113       -0.20438126446061       -1.89611550463938
C           -2.70791386956777        1.13789454156659       -2.44488961680114
O           -2.19506074331004       -1.16991168869811       -2.91140456751574
N           -0.81342031317386       -0.05944860494607       -1.36679804490869
C            0.20875636608621        0.03497386749848       -2.40477405801002
C           -0.74970495396256        0.65934102754945       -0.16916331127847
C            0.51385325379869        1.41379691229871        0.24784030980109
C            0.33212160953784        1.94700696228620        1.67784974024225
C            0.82045514019944        2.59153293352595       -0.68960460830420
N            1.62564874924350        0.44717791331283        0.26194473631847
C            2.91113909329429        0.77589082071197        0.47063014627562
O            3.35835333454234        1.90598071076254        0.58074962041631
C            3.76113760750699       -0.44723406224988        0.53623037469705
N            3.34477288762908       -1.67316530772415        0.43225695579440
N            4.44252478946844       -2.47370737777319        0.55395823552897
C            5.45735200956528       -1.68359272906011        0.72607596936856
C            6.87394630078926       -2.06343543725533        0.92152884564846
O            5.09267340761207       -0.39260685071955        0.72536854831194
N           -1.69991362658290        0.64324845295417        0.68796336620122
H           -5.98372631227757       -0.24258059652917        2.98807581964024
H           -6.45743462713426       -1.83512967626002        2.33597512637506
H           -5.06538910193914       -1.69634010919888        3.44517790718343
H           -2.93173489429292       -1.77757265650949       -2.67562030451339
H           -2.13913139993780        1.43807478828630       -3.32260827311263
H           -3.75024301754734        1.00985434746279       -2.73174823505548
H           -2.63472701379718        1.91290051757700       -1.68407349603776
H            0.07084739173841       -0.79919783968161       -3.09411890962296
H            1.20036665051263       -0.04641867596838       -1.96564667952128
H            0.13728711373123        0.96983680285948       -2.96923832844755
H           -0.49358707249765        2.65667364662832        1.69852109260580
H            0.10733617692657        1.12837796320162        2.36064505385217
H            1.24242004145355        2.44701473821367        2.00443913196099
H           -0.11233498022139        3.08061558240457       -0.96651391895178
H            1.32966806447415        2.26444340302891       -1.59157985195593
H            1.45856162145857        3.31789992546623       -0.18927359296715
H            1.38807723207215       -0.53489995343612        0.28380647852323
H            7.00457637578038       -3.11902363018693        0.69642340523947
H            7.51439503057611       -1.46509906954137        0.27522095998446
H            7.16935285621802       -1.87873614877208        1.95503377591932
