21
 energy: -30.781920210352 gnorm: 0.000882125560 xtb: 6.5.1 (579679a)
C           -0.71671194732631        0.11242858566570        2.08312539292317
C            0.29938684115248       -0.02056736015184        0.98564029149294
C           -1.52643763354444       -0.16354749484050       -1.33967614884912
N           -2.59536820817557        0.46846803955863       -1.02634610534708
C            1.20450802122297       -1.08285312083721        0.98344794594718
C            2.18074853568616       -1.18242812595959        0.00441988279118
C            2.24307087268962       -0.20112963246674       -0.97433244339341
F            3.19153620886241       -0.28971623655654       -1.91306811772458
C            1.36210108069852        0.86018711282299       -1.01464071955647
C            0.36971209554412        0.93631991245097       -0.03483597991723
H           -1.57812124214485        0.68638366167606        1.74340219853663
H           -0.27293910580634        0.63637598001302        2.93370938809075
H           -1.05044369343532       -0.86759087718758        2.42380030472298
H           -1.28918046089890       -1.09624735299116       -0.84868230701121
H           -0.93196114843062        0.16633265572400       -2.17864945245701
H           -2.86705900147216        1.31978802605652       -1.49417987295146
H           -3.20315158439166        0.15299115254764       -0.28497958933861
H            1.14636925190974       -1.83692279346739        1.75977140600384
H            2.88690719094735       -2.00341575659505       -0.00330459040669
H            1.43658792738400        1.61068212601636       -1.79045900969377
H           -0.28955400047209        1.79446349852002       -0.01416247386193
