43
 energy: -83.184406419387 gnorm: 0.000748866328 xtb: 6.5.1 (579679a)
C            6.79105949617688        1.32754566700062       -1.00033685519581
O            5.53684060686684        1.47577730877078       -0.31392432676154
C            4.62039373097332        0.53206875015302       -0.56265960553295
O            4.81972691235121       -0.39721661482866       -1.30667529759680
C            3.33878152904970        0.74693256116963        0.16832490515773
N            2.40614073580313       -0.22721445171863       -0.10534449381815
C            1.24777984933550       -0.17591174617317        0.44834234151164
C            0.24902774386897       -1.28291196382412        0.19313690925247
C            0.60953707222553       -2.03670525186780       -1.08884374634134
C            0.23906808307008       -2.21260382895667        1.41501470285589
N           -1.08031941685540       -0.65903694518042        0.03321098706367
C           -2.19567990678081       -1.37482206031635       -0.12627420159698
O           -2.31201513961632       -2.58299816941653       -0.12595376165413
C           -3.40844009323797       -0.50218550064327       -0.31060120988286
O           -3.35526775520812        0.82056503801766       -0.33008270528055
C           -4.62083509212684        1.24311948688693       -0.50092354236377
C           -4.93515243737226        2.68001295560482       -0.55377709184338
N           -5.43849088161528        0.23451604494107       -0.58643832812100
N           -4.66262666021118       -0.85733947225640       -0.46287132879202
C           -5.27460622548109       -2.16860036696669       -0.52444653013805
N            0.90451424903856        0.81049580700361        1.32760858669863
C            1.74426993636680        1.85286564615688        1.68288447832540
O            1.38021939299660        2.70853931487872        2.46607508144247
C            3.05870918232434        1.77954514827933        1.02721562151235
O            3.88742613375065        2.77241476294943        1.35607320342191
H            7.41491017919199        2.16279552103813       -0.69277859714668
H            6.62471948187361        1.35158598498943       -2.07933115401061
H            7.25543283180483        0.37928196138061       -0.72157296563330
H            1.61879685070713       -2.43552013954985       -0.99615994237824
H           -0.08862029937104       -2.85497053212312       -1.25116963551426
H            0.57412133436130       -1.35761376970693       -1.93896899734520
H           -0.41057037732103       -3.06679738695762        1.23777903356268
H           -0.11416613320841       -1.67039861119151        2.28984506245294
H            1.25176239013363       -2.56876693603691        1.59879554349097
H           -1.13402795158572        0.34166696609957       -0.05961945265403
H           -5.97925722363810        2.82108132635351       -0.82389168277679
H           -4.74479612059789        3.12834595696503        0.42315133322712
H           -4.28640866433951        3.17355897832653       -1.27785035063266
H           -4.59554841471434       -2.89567507561504       -0.08616733061125
H           -6.21476459282744       -2.12666715411767        0.02122843903618
H           -5.46334713230645       -2.41064801051906       -1.57027913412339
H           -0.00674023458505        0.81353212617205        1.75534367241618
H            4.74844203073226        2.70835567483305        0.90546636631806
