42
 energy: -83.006036413600 gnorm: 0.000660689355 xtb: 6.5.1 (579679a)
C           -3.84754588986024        3.11525071269718        1.30655419686004
O           -3.86154310937106        1.70740566538723        1.02214708881528
C           -2.76729186653810        1.18789235586726        0.50678904878134
O           -1.76637966344401        1.79837056736467        0.24068134741526
C           -2.92537503771725       -0.33436786744612        0.22960174266958
C           -4.02622110171015       -0.95812968114136        1.08694408817911
N           -1.65407068459398       -0.93757755059850        0.55882008783954
C           -0.74142128283953       -1.05598947257458       -0.31408853845775
C            0.59190761379887       -1.67280047777671        0.09018592409459
C            0.57649103644763       -1.96819906376400        1.59056078406572
C            0.83101253476513       -2.96649239194853       -0.69848602378331
N            1.68175931607800       -0.71386597027930       -0.13767014573812
C            2.21208948411750       -0.38212375152675       -1.32883197361665
O            1.78567700317208       -0.72988973748235       -2.42277788977428
C            3.39156921196232        0.50528716876847       -1.20450626099645
N            4.09768979586764        1.02234862032003       -2.16152722640579
N            5.07240026743239        1.76821164821564       -1.57246358846398
C            4.90277064153415        1.66154400119022       -0.29105334123340
C            5.69941258964315        2.28825936472714        0.78525330378964
O            3.85497674645116        0.87665641263940        0.00889443417906
N           -0.89338656843634       -0.70437859075194       -1.64400747347026
C           -2.07525707175412       -0.35213427307346       -2.21254685249436
O           -2.18513095524060       -0.06335834517627       -3.38403709422902
C           -3.26867383010728       -0.38447596123829       -1.24956142476816
O           -4.40198018284681       -0.40692622320104       -1.65322798498382
H           -3.01892883416388        3.34743984069750        1.97740382993938
H           -4.79925094438921        3.34075690713232        1.78153330379396
H           -3.73772287354667        3.67956113289385        0.37845284669311
H           -4.03175032553018       -2.03504521475739        0.93110898675818
H           -4.99445816607200       -0.54884251430938        0.80569389809633
H           -3.83542595244331       -0.75121848753480        2.13701871875682
H            1.52574782102481       -2.40686319853632        1.89081447501546
H            0.40931947199488       -1.05156386753862        2.15385476908713
H           -0.22666605067163       -2.66634022855683        1.81894646537238
H            0.80370326711305       -2.78980087115146       -1.77138709032289
H            1.80305675721481       -3.37746571793257       -0.43254316353776
H            0.05747624375794       -3.68810074832959       -0.44106777983842
H            2.15459951237802       -0.38397428787053        0.68868876946465
H            6.03017908236821        1.52910704474277        1.49228279370329
H            5.08733718788800        3.00828827851809        1.32806991569612
H            6.56095778946140        2.79471390340344        0.35738271048770
H           -0.07165298319589       -0.74616313007517       -2.24789867744140
