43
 energy: -83.864817348056 gnorm: 0.000376931320 xtb: 6.5.1 (579679a)
C            5.70391136947399        0.74316548931468        2.21694729192157
O            4.51163190234187        0.34058787812619        1.54851301043520
C            4.62085344620267        0.13183718703979        0.22421846768825
O            5.68776950382166        0.28926198954354       -0.36913492919190
C            3.38523885907074       -0.29796845381514       -0.42086695319923
N            2.26784975220110       -0.43670607180597        0.37227686450851
C            1.16831137753532       -0.83310683077524       -0.17727424506619
C           -0.06491236770039       -1.09465767023614        0.65960223122347
C           -0.07228301686932       -0.18517945357198        1.89624262561228
C           -0.02505558647599       -2.56981613231911        1.08804432173767
N           -1.24287986579287       -0.91410842417105       -0.18185601685541
C           -1.47912685581169        0.44186159913440       -0.62843433047380
O           -0.50115573207267        1.22605867917854       -0.79451510484186
C           -2.80260727851164        0.75426052292367       -0.80873865950302
O           -3.85677889913014       -0.17539048860896       -0.70513532985616
C           -4.92791619442454        0.47168408670029       -1.19141997063740
C           -6.23533131176726       -0.23698589799041       -1.19933341319703
N           -4.72918889400141        1.66227367456936       -1.61177163295470
N           -3.33485012271183        1.92684046556566       -1.46142762277125
C           -3.14286919143201        3.17589436239818       -0.71297763029036
N            1.08483083976497       -1.15379267586506       -1.49836672780007
C            2.12695160622623       -1.04124535003751       -2.40151222384881
O            1.96514265734892       -1.34080291740799       -3.58471471867459
C            3.34945087251298       -0.57002655709287       -1.78292709954414
O            4.42454732218662       -0.43319597495464       -2.58930548396482
H            5.45105578861810        0.86209510559335        3.26892996453709
H            6.07001725863464        1.68922108489855        1.80889078333132
H            6.47981114261895       -0.01840701084826        2.10172522626456
H           -0.97750782453447       -0.35483839135668        2.47625250287125
H            0.79609794570439       -0.40652239226912        2.51576913231432
H           -0.02928385926332        0.86100259455420        1.59436477522048
H           -0.05519815597606       -3.21373452411576        0.20979926205959
H            0.88694638319124       -2.77343902133055        1.64763152378507
H           -0.88286346851438       -2.79537766853473        1.71888614405186
H           -2.06778318761116       -1.30712899969683        0.25420995521091
H           -6.52332855519799       -0.49258605485613       -0.18004386514352
H           -6.15506888922255       -1.16311705067758       -1.76797091347902
H           -6.99820253784613        0.39827826237310       -1.64269208625872
H           -3.59692461724573        3.11522421232047        0.28019047635325
H           -3.59724608271901        3.99044976106714       -1.27468688317478
H           -2.06980917725812        3.34164676602271       -0.61980058535143
H            0.18893629884853       -1.47352268467260       -1.84537306996242
H            5.19881534577953       -0.13998902432622       -2.05637106309540
