43
 energy: -83.173088202872 gnorm: 0.000347257658 xtb: 6.5.1 (579679a)
C           -6.21275592033771       -1.07145636476443        0.01139176538067
O           -5.52589043387292        0.04131074201698       -0.59906946258784
C           -4.28168382023448        0.24441511595486       -0.38989007061336
C           -3.66883184281363        1.41203054579884       -1.05023763319476
O           -3.67212011729575       -0.58618645803537        0.37961875248841
C           -2.34237841211733       -0.59481696293018        0.78706284796003
N           -1.50884889470494        0.35626903938694        0.30368256003899
C           -0.26691009909895        0.33213980180194        0.68675499358115
C            0.70908227998770        1.38054460899148        0.20487505999303
C            0.95231237823525        2.38987690322672        1.33180066928011
C            0.18981021635858        2.07530474417183       -1.05627137354346
N            1.97502699243736        0.71091306926418       -0.08465516409316
C            2.00299757414122       -0.37055872105393       -0.90117270790965
O            1.00337228618077       -0.94758498235446       -1.29621676120060
C            3.37521458378338       -0.80981350212643       -1.23054934828454
N            3.74280424493139       -1.84090025602009       -1.92556611740142
N            5.10339237697365       -1.83141048289764       -1.95276477831060
C            5.48507397260100       -0.79388903682054       -1.27332324749013
C            6.86598761830930       -0.33994397141980       -1.00287004961533
O            4.43933811800299       -0.10486933740630       -0.78924746086341
N            0.19536766767915       -0.58444860361893        1.57348485611988
C           -0.57158877736231       -1.59843420029189        2.11259951986157
O           -0.12879977832164       -2.41863816588869        2.89433353732580
C           -1.95527064239793       -1.57673318753738        1.65446573774370
O           -2.78777122280521       -2.51766744932315        2.11407382611476
H           -5.81920501569873       -2.00142272475579       -0.39972488574980
H           -7.26326523917564       -0.94441675548422       -0.23929873497188
H           -6.05741012859366       -1.04436742490300        1.08973806852512
H           -4.42186108220699        1.95415485500441       -1.61755955962408
H           -2.86399789066137        1.07613643332565       -1.70492875635662
H           -3.21503466624762        2.05658669332347       -0.29771053491196
H            0.01592225187484        2.87717984379497        1.59780724381457
H            1.66289763995046        3.14414994690126        0.99908363272378
H            1.35318051951946        1.88579963408687        2.20902256998112
H           -0.03553938841015        1.33631746451906       -1.82411425878738
H            0.94472875121016        2.76439331416042       -1.42918985451226
H           -0.71544363209954        2.63087934589668       -0.82039771762964
H            2.82833370829793        1.20182101651789        0.12494213104502
H            7.06252438003950       -0.37340128249243        0.06887728894330
H            7.57370848218442       -0.98027052826835       -1.52443097076040
H            6.98705007634787        0.69127194715198       -1.33310175842016
H            1.16411177050631       -0.54486758088534        1.86058742284006
H           -2.31763488509138       -3.10000408599685        2.73808972308492
