43
 energy: -83.151037528521 gnorm: 0.000229389388 xtb: 6.5.1 (579679a)
C           -6.06057231952264        0.48716710348522        2.82375944362679
O           -5.20723572189921        0.49056814257399        1.67323868768154
C           -3.91700337970433        0.26366759751008        1.88974584562329
O           -3.44836354934438        0.05338238658457        2.98421501687069
C           -3.09314256623579        0.30491798045110        0.64192281068321
N           -1.74466769333628        0.16510473804993        0.87497128958929
C           -0.90504447990942        0.21031092624541       -0.09838923277384
C            0.57014183707174        0.17225045100896        0.23887848763907
C            1.23727923701424        1.49267308513814       -0.14479407185262
C            0.75888299095361       -0.10202733774012        1.72977906099367
N            1.28795193784468       -0.97040211826100       -0.49446722035515
C            0.47907441190041       -2.21487743755816       -0.60874715940107
C            1.78563197170973       -0.60131938506824       -1.87899571321387
O            1.02126584890025       -0.58264272418785       -2.79330270092226
C            3.19666189719976       -0.34053231979655       -1.89284224873772
N            3.95436711285303       -0.02509966077742       -2.91296224933244
N            5.19316630443959        0.13925315865881       -2.44508977728826
C            5.15516050883767       -0.07822934177029       -1.15246787913546
C            6.26889684233749       -0.01232111585598       -0.19197209485936
O            3.92009517566846       -0.38514182544201       -0.74891188637249
N           -1.29943975062854        0.39145547885800       -1.39348386364291
C           -2.62196195736073        0.51228449972344       -1.75812658722990
O           -2.97686551734011        0.64560107807449       -2.91633917352445
C           -3.55887161627318        0.47777488628060       -0.63305168154554
O           -4.84357092372294        0.62084112396130       -0.95525711404551
H           -7.06860995642299        0.68160611637640        2.46282061226818
H           -5.74835761503881        1.26740029406874        3.52197903914265
H           -6.01375700595352       -0.48413610669738        3.32157024085197
H            2.29752314905355        1.45659909847661        0.09576959377958
H            0.77484214618932        2.29472349903171        0.42984198449719
H            1.11319332088889        1.70759138366151       -1.20425050915557
H            1.81939943308767       -0.13813147864245        1.97052183622765
H            0.28940067864736       -1.04177023502711        2.01435307790854
H            0.29222827228116        0.70170498953524        2.29768793251897
H            2.11603852064078       -1.18293305249533        0.06612925793013
H            1.13978278386529       -3.00069174355740       -0.96499794947798
H            0.08830311091898       -2.46117483848404        0.37374880701057
H           -0.32484346793310       -2.04155110102110       -1.31839281690329
H            6.37702627411388       -0.97366845442246        0.31113025469885
H            6.04943822795250        0.73565980084702        0.57055996427411
H            7.19159574490755        0.24449125163665       -0.70756579511402
H           -0.62079084939597        0.40105286228405       -2.14320061036656
H           -4.92424736929015        0.71856634426325       -1.92258390856694
