46
 energy: -86.323056995462 gnorm: 0.000525080523 xtb: 6.5.1 (579679a)
C           -5.14009336625082        2.14012558200634       -2.58927133157958
O           -4.10717309309738        1.54578467462470       -1.79227145650000
C           -4.38730986583574        0.38086777894941       -1.23184456539752
O           -5.45506619561739       -0.18968763713959       -1.36713365733304
C           -3.28300671421672       -0.17892417171696       -0.41600894870967
N           -2.12781532888297        0.53910441268753       -0.32875970061247
C           -1.13161286173877        0.10647259836425        0.37704161645833
C            0.07209787829489        1.03265514805717        0.42209918668641
C           -0.02415994441350        2.06051615670926       -0.71163993322275
C            0.15975449775686        1.75293408091602        1.77030369444873
N            1.33182998084032        0.27992692847147        0.22404702902161
C            1.45745793031254       -0.57889556931223       -0.77089630902876
O            0.61409745570732       -0.98875910825850       -1.52118922143183
C            2.94149743343627       -1.17979012800630       -0.90295377176155
C            2.83486782661625       -2.68438425758866       -0.65923071650781
N            3.41634412205318       -0.81360752167205       -2.17737626168874
N            4.42438013616324       -0.05337134851151       -2.05936224158517
C            4.68115967527868        0.09812033788247       -0.72776450503818
C            5.75642222612581        0.90165735413493       -0.15764490156207
O            3.83076255955550       -0.55526213873787       -0.01163144341446
N           -1.19849562641291       -1.06486038874670        1.07835744263562
C           -0.13426610648085       -1.60782912466445        1.92089140888091
C           -2.31665060189491       -1.90345565844998        1.03021123428050
O           -2.31823528536643       -2.96129204533523        1.63697319579377
C           -3.42180721772862       -1.38678492494999        0.22463781712960
O           -4.51460641585252       -2.14231166480996        0.17174534390518
H           -5.40714557214074        1.47251818761537       -3.41108201439038
H           -6.02152520515958        2.32940134032438       -1.97316872006893
H           -4.73581570854782        3.07406312613200       -2.97264023543263
H           -0.12244107289639        1.55441971317729       -1.67093304186187
H           -0.89444880975227        2.69562936685480       -0.55707129840198
H            0.87384966720236        2.67418932503527       -0.71742364727443
H            1.01142028162709        2.43040823782945        1.76617162880797
H            0.27418507435676        1.05282624552722        2.59397104270312
H           -0.75015980320762        2.33153847247092        1.92475166573132
H            2.13199843316250        0.56337205506530        0.76098100111445
H            2.51240564919682       -2.85534622116975        0.36495134581022
H            3.81101347779205       -3.13797798402016       -0.81629370707117
H            2.10797257394249       -3.09766118078118       -1.35627354267872
H            5.61211321991040        1.94650094952430       -0.44459994429753
H            5.77577866032024        0.81105183284144        0.92549768340514
H            6.71038792761264        0.58784825944857       -0.58818951177074
H            0.24187688289647       -2.52254285900536        1.46159590764397
H            0.67241290854710       -0.89895315725746        2.03806882647653
H           -0.56024313634475       -1.85070465555990        2.89478007168150
H           -5.20400654685542       -1.70953141896731       -0.38544951401675
