21
 energy: -30.771051498900 gnorm: 0.000521199849 xtb: 6.5.1 (579679a)
C           -0.45987534513602        1.79714524673303       -1.10745764628429
C           -0.19903183112058        0.27190926584527       -0.88182577583652
C           -1.47347633938835       -0.45367722623882       -1.07420532764766
C           -2.04962165850548       -1.10541299244624       -0.03679385227270
F           -3.21981242388789       -1.71298898873255       -0.19985176821512
C           -1.45258807164395       -1.17694614867700        1.23889683933672
C           -0.20831136395726       -0.61621670341070        1.44745364916113
C            0.45394445056122        0.07344738575605        0.43375191891158
C            1.86183630292066        0.50823500427571        0.62825910383158
N            2.53595947802288       -0.75252262670869        0.34019763675824
H           -0.90158611380364        1.93584754982467       -2.09159868337415
H           -1.13995797024975        2.16770631359157       -0.34426046660436
H            0.48089276991381        2.33880897240367       -1.05423372998641
H            0.49412056816451       -0.00923225858795       -1.68610012331883
H           -1.94556432540630       -0.40867060401807       -2.04764800682743
H           -1.97766793991033       -1.68602975235999        2.03876784336923
H            0.26100889451431       -0.70840433255809        2.42014762493813
H            2.19265722956644        1.26776487037567       -0.07852551847658
H            2.08260302605771        0.81220494970590        1.65134283239467
H            2.36604515576398       -1.06998538531619       -0.60141653721566
H            2.29842650752413       -1.47298053945729        1.00509998735825
