20
 energy: -38.324803055528 gnorm: 0.000935773510 xtb: 6.5.1 (579679a)
C            3.36091312620400       -1.48792402635313        0.23275785209778
O            1.96209168661313       -1.32653011631319        0.14426842327960
C            1.54385915696614       -0.00407215594725       -0.18683617736734
O            2.42183925122605        0.87343394040335       -0.40752718146312
C            0.19758991886018        0.20104502053123       -0.03339169303141
O           -0.76301917465523       -0.85639447558791        0.03076000598160
C           -1.88297814225940       -0.32275030021436       -0.46486347325464
C           -3.09531597611513       -1.18529521059756       -0.55949089961058
N           -1.84085143699603        0.90148582998634       -0.83015283189447
N           -0.49858532921834        1.36927606703778       -0.58069917583986
C           -0.59417688558712        2.46461229927955        0.39924578912646
H            3.85457351133290       -1.27454515971622       -0.72548409878025
H            3.79647416103695       -0.83047784619437        0.99757696559038
H            3.55263190595623       -2.52760380063797        0.50672338009323
H           -3.29334016244729       -1.65433802218007        0.40379278416661
H           -3.95230816950341       -0.58352046198662       -0.85367810090746
H           -2.94087667802701       -1.97435680759986       -1.29675003932733
H            0.41394328482109        2.83725361585015        0.57694761849545
H           -1.21045271424091        3.25732098680293       -0.02337054496061
H           -1.03201033396673        2.12338162343714        1.34290939760619
