42
 energy: -83.597566998245 gnorm: 0.000337432372 xtb: 6.5.1 (579679a)
C            6.67245479319202       -0.42826471282289        1.29407567745350
O            5.52693612976255        0.26329810345771        0.79970892170062
C            4.42462457410772       -0.50160277078614        0.58154271486422
O            4.44442155995849       -1.69777183271429        0.80346888678338
C            3.25944137129577        0.24768582431594        0.07934601469160
N            2.14877499487100       -0.53381424762502       -0.09012165118367
C            1.04993044273845        0.05125708292258       -0.52217522906591
C           -0.19022276992174       -0.81458834413588       -0.71969544770646
C            0.11547132861995       -2.27811596759116       -0.38861821011146
C           -0.64366871686632       -0.67762731236282       -2.18579336353682
N           -1.22826034994733       -0.30348303553297        0.20516082779836
C           -2.54315241141822       -0.89112852980521        0.00981850987642
O           -2.76096437395439       -2.08691517211280        0.73132833117755
C           -3.09836465931201       -1.91488081019447        2.09989908839275
C           -3.62778242340701       -0.10290694278196       -0.29948034731999
N           -4.94236176591036       -0.42610157113387       -0.22548904860370
N           -5.62646021364651        0.64034473185918       -0.77806215018678
C           -4.76352979555217        1.51760432257211       -1.15022680152644
C           -5.03458005157900        2.83379189070457       -1.78978671818928
O           -3.46612695113937        1.14093016492761       -0.89589131905121
N            0.90087874844597        1.34264533289992       -0.81090025998664
C            1.95298785758813        2.19209657322833       -0.68678496936785
O            1.86328649585180        3.40506224362086       -0.95828741958507
C            3.21207742067762        1.59439991912401       -0.21026002036603
O            4.25519283879815        2.46170758909540       -0.09364610609111
H            7.00250643114679       -1.18113056174235        0.57321384834007
H            6.44093903529711       -0.91871435108680        2.24372779976751
H            7.45341524841077        0.31462708158074        1.43944567520345
H           -0.75824709633510       -2.90393382363152       -0.57027643336912
H            0.40120882843066       -2.36920803561412        0.66022717871114
H            0.94018773861571       -2.63741087166946       -1.00488062558315
H           -0.82026207160324        0.37322328046368       -2.41936500878868
H           -1.56632268164325       -1.23716179276392       -2.34715940111592
H            0.12592292170415       -1.06237486958287       -2.85502584605733
H           -1.29903345750122        0.70513288853400        0.04307505021067
H           -4.05670361195487       -1.38632793518450        2.20959918405606
H           -3.18920920322034       -2.90785664585978        2.54808632865007
H           -2.32180969700959       -1.35158906735790        2.63725330161473
H           -6.11032987342817        2.97515468614688       -1.87225242525256
H           -4.61431781851923        3.64759263782595       -1.19629248563048
H           -4.59445383138726        2.88251568292117       -2.78743969607070
H            5.06550406576256        2.02384116789861        0.20327164444801
