46
 energy: -87.046886457171 gnorm: 0.000481175186 xtb: 6.5.1 (579679a)
C           -6.61766868322557       -2.21345798425436        0.21273258938408
O           -5.60328752846008       -1.26504352199913       -0.14220900425667
C           -4.42468228479161       -1.39968826217296        0.48970460265813
O           -4.22388383323328       -2.26573138086961        1.30813347403031
C           -3.41911082580161       -0.38259455739071        0.08190947270910
N           -2.21332061917374       -0.53684164666114        0.70018231131089
C           -1.22644344047629        0.27811445190391        0.48634362638718
C            0.06614436820156       -0.01420817068980        1.26149880115350
C            0.01823853134001        0.84049900615449        2.53942874656169
C            0.05547772720700       -1.50850261547863        1.64542449912466
N            1.20653141692290        0.29491713447771        0.40238730634226
C            2.61013942570500        0.31174113470695        1.07502122748225
C            3.02380571241135        1.81966629256090        1.11551773456056
O            2.72122309987041       -0.31737229770398        2.20576028607544
C            3.49440720156106       -0.35154525677947       -0.03010603332106
N            3.19844041269006       -1.37984649818686       -0.76149278245550
N            4.33173776985653       -1.70160428125930       -1.48442621135685
C            5.23505449280758       -0.84910108700025       -1.13508706900294
C            6.63183242491131       -0.75511385947047       -1.62577188791773
O            4.77827943846466        0.02991075331254       -0.22067808691964
N           -1.36723140043700        1.35120647874355       -0.35788887729741
C           -0.30926624828209        2.34208328301695       -0.57154744849031
C           -2.52379013117789        1.56728821563183       -1.09419828943245
O           -2.60905872237778        2.49520016016084       -1.89249181573675
C           -3.60910496120162        0.62688823329942       -0.82491138456299
O           -4.73222245000597        0.86917330656040       -1.52283094554404
H           -6.88276612059147       -2.09835791307482        1.26604773138422
H           -7.47738928668281       -2.00288660912660       -0.41821528433026
H           -6.25681846872614       -3.22943119407788        0.03742368969655
H           -0.89971098519321        0.61813561058740        3.08360684263962
H            0.03048141679695        1.90382845979907        2.30666262661289
H            0.87071720262454        0.60895292594830        3.17687095377934
H           -0.78817406162456       -1.72716634035224        2.29912852048557
H           -0.02757896013530       -2.12406201820279        0.74971045577559
H            0.98074383843890       -1.75704599096871        2.16339221864975
H            1.23400815168344       -0.42233694262684       -0.32423710471931
H            4.05772427233199        1.89140350047806        1.45008017553080
H            2.92654102474569        2.27481327846853        0.13170475796882
H            2.38812579372632        2.34652509700026        1.82386515045051
H            7.32992163530427       -0.80696977504756       -0.79071992290409
H            6.78712346319936        0.19501991895918       -2.13649245316260
H            6.83189709210014       -1.57039004504167       -2.31654721844314
H            0.21371596478177        2.53901798690196        0.35827917784480
H            0.39962062229223        1.97319940504760       -1.31225741569371
H           -0.76868496472826        3.26192655664968       -0.93253147921608
H           -5.44173952365218        0.23978705806860       -1.31479026383044
