42
 energy: -82.982612965249 gnorm: 0.000322998442 xtb: 6.5.1 (579679a)
C            1.98456500459906        3.92258577498232       -0.75153409169903
O            1.90370637796717        2.49123962170971       -0.79221420548273
C            2.95297359688818        1.82131434104082       -0.34320887596296
O            3.95484219870118        2.32689349590317        0.09110238603317
C            2.73375971582225        0.32308338104216       -0.43105168826823
C            3.91733422997029       -0.57778082178815       -0.54122516666217
O            4.99750759068865       -0.21657723403267       -0.93055146002359
C            3.63478839756162       -2.03125587635065       -0.15353500445725
O            4.51469991757713       -2.82472108314888        0.11005446712881
N            2.32329992713909       -2.34791645711352       -0.11048533222962
C            1.21046117603424       -1.49370312949908       -0.47382163104080
C            0.81294907402703       -1.77327773414251       -1.93225248010079
C            0.03109810470143       -1.72458354533256        0.52670611305536
C           -0.58597336149954       -3.11551089939888        0.37444961660500
C            0.52864176615474       -1.49444211664558        1.95876023199156
N           -0.95998821057158       -0.70183939331916        0.19357023833745
C           -2.15592293653378       -0.58670141746872        0.81260180189046
O           -2.63549906801519       -1.38554902663505        1.59579930630523
C           -2.83928347378483        0.66374815653829        0.39192292965200
N           -2.35140874363529        1.57341516321413       -0.39751368493585
N           -3.29166166941514        2.55384488983519       -0.49489908052290
C           -4.29330192368264        2.18100668297484        0.24378807283470
C           -5.56633998987605        2.90127060613886        0.46593481947005
O           -4.06708913118263        0.99634646513454        0.82981814361631
N            1.53309727727325       -0.10268911478050       -0.40390986678993
H            1.13649084813690        4.29676611956820       -1.32050379814993
H            1.92965993993397        4.26538224060194        0.28373239690209
H            2.92329786802461        4.25691588454068       -1.19823830802996
H            2.11506437376776       -3.32399725217318        0.03503076618377
H            0.63289801845241       -2.83680507485720       -2.06535904162636
H           -0.08613687620621       -1.21591916297921       -2.18454169873679
H            1.62602453967190       -1.46547299225376       -2.58714362657095
H            0.18568768998644       -3.88066506367253        0.42354547800819
H           -1.29509678169021       -3.29214995243201        1.18152724282751
H           -1.11320002787898       -3.20056003524899       -0.57371695915076
H            1.28759941607763       -2.23211213150627        2.21199920643264
H           -0.30364004579576       -1.59107973663991        2.65405575681051
H            0.95496496332843       -0.49595517174032        2.04751712632619
H           -0.61660739798784        0.10940812922557       -0.30798000340795
H           -5.48561528314042        3.91390339721006        0.07832232546309
H           -6.37914280826953        2.38538436610030       -0.04583167847879
H           -5.79950328332283        2.92875670740217        1.52928225645436
