42
 energy: -82.977288839342 gnorm: 0.000662989792 xtb: 6.5.1 (579679a)
C            3.03957943273604        2.90603326281016        2.65625913535545
O            3.27096804512662        2.04780304213339        1.54093070837149
C            2.20585196741477        1.38976407937933        1.06702737863818
O            1.09455281335284        1.51858645970305        1.55360161468364
C            2.50543054054920        0.50740968250091       -0.08132332433410
N            1.40531881935745       -0.15235979720386       -0.56009080989482
C            1.55064101576037       -0.97012716088844       -1.57828695857174
C            0.27535415104023       -1.66724185537183       -2.05280590603702
C            0.39550462722818       -3.18187156274227       -1.85630356980045
C           -0.01143614118488       -1.31895813713312       -3.51615925528008
N           -0.77259141353302       -1.12885151206647       -1.18709585262027
C           -2.06255255396002       -1.41378274242091       -1.14728143176531
O           -2.70192522587062       -2.17565117061254       -1.84947031730553
C           -2.71423973777148       -0.61758585555903       -0.03141998402069
N           -3.95139455672684       -0.56914889755974        0.36238089602022
N           -3.95002510741654        0.29264231330945        1.40425400607745
C           -5.19049399366273        0.59559816704207        2.08135278336877
C           -2.73131114287449        0.74377411414651        1.61745252094767
C           -2.21243352272409        1.68926733502148        2.61985190815535
O           -1.94177062956063        0.18442826273535        0.72863378346126
N            2.67049950560903       -1.25727644750843       -2.23015410101299
C            3.81208839223680       -0.64491582252342       -1.82205944211671
O            4.92694829992664       -0.82269275170982       -2.34500344870006
C            3.71322166165724        0.28710087726259       -0.68715543042066
O            4.87758725621440        0.86580638800684       -0.32939619971882
H            2.71792466082884        2.32149810997403        3.52172904594772
H            2.26714167091612        3.64031032595211        2.41569439367104
H            3.98138176700804        3.40758522096388        2.87167053860519
H            0.52914575367121       -3.40994055108966       -0.79963438387578
H            1.26208680476153       -3.54193634361361       -2.41024012129485
H           -0.49999320475406       -3.68545947651747       -2.21809754942674
H            0.84231649936191       -1.62034230983553       -4.12284229000735
H           -0.16040603964402       -0.24501228163201       -3.62103423572778
H           -0.90402275695552       -1.83776531677577       -3.86336194974095
H           -0.37024886660833       -0.46068217425996       -0.51665508425582
H           -5.70880123908948       -0.33940554006447        2.28572628768521
H           -5.79995560996893        1.22340224370814        1.43214896502300
H           -4.96246010918692        1.11875072158311        3.00525817689941
H           -2.42910998684175        1.32944126577257        3.62544274835095
H           -2.68886535356616        2.66208553013918        2.50080385255439
H           -1.13353008780035        1.78500183715093        2.48213683316284
H            5.55402259494061        0.51049046775952       -0.94648793103357
