33
 energy: -58.556353565021 gnorm: 0.000674628444 xtb: 6.5.1 (579679a)
C            4.70805946179904        1.58046381816463       -0.25962123162794
O            3.64444583932634        0.68309130827586        0.05165055277249
C            2.45895678036307        0.94025484737269       -0.53523001742400
O            2.32293446359893        1.87308685579015       -1.30101903293548
C            1.37174727548222       -0.00398619525034       -0.13701507420529
C            1.62424777779033       -1.35081057598486        0.16417880505133
O            2.91403048741748       -1.90915549099524        0.13014925111736
C            0.53186970990455       -2.25464247575728        0.29806949290980
O            0.59518109475064       -3.48372569543540        0.47503539786646
N           -0.72946557120131       -1.66852508510343        0.11096846157667
C           -0.91880739391695       -0.24653834050443        0.38229848353141
C           -1.01929903055249       -0.01720884082582        1.90948818839765
C           -2.20027105362588        0.24515952707387       -0.37021831420519
C           -2.01257282024080       -0.02037648950779       -1.87280753573448
C           -3.48279524186348       -0.43543039056769        0.11453327766755
N           -2.34790139374546        1.69126182707136       -0.18589340607324
N            0.17689839953310        0.55830757359485       -0.12033454839525
H            4.45941576028028        2.59185059153907        0.07297375974943
H            4.89477236330308        1.59481330529142       -1.33716633994783
H            5.58974341592662        1.22329811129481        0.26792261020438
H            3.51628855382724       -1.40152887156964        0.68715823264422
H           -1.47447316469537       -2.24570342578123        0.47662791374457
H           -1.24028676418132        1.02859352444009        2.11307182004642
H           -1.79541315381388       -0.64159295875167        2.34751117383222
H           -0.06605205647414       -0.26893772929337        2.37386595253649
H           -1.91858297675482       -1.09061113432704       -2.06087426433480
H           -2.86694269160606        0.36604939394027       -2.42866020708706
H           -1.10827488103220        0.47968008515495       -2.22441896238224
H           -4.33663189781777       -0.04159078852985       -0.43796708005393
H           -3.43852792478162       -1.51201722537458       -0.04674787895605
H           -3.65046457307082       -0.24818556468938        1.17412979513788
H           -1.41619213172787        2.10481730847939       -0.16467005927656
H           -2.78563766220271        1.87984020076441        0.70561078385238
