42
 energy: -82.977391196465 gnorm: 0.000568001996 xtb: 6.5.1 (579679a)
C           -3.03737750296572        2.30098732711226        3.10474637996290
O           -3.59836909048197        0.98081197874302        3.17116364032425
C           -3.34635388800874        0.11975458800267        2.23187795705352
C           -3.96989818074455       -1.20969562422103        2.37354587914870
O           -2.55288402086135        0.47743563318126        1.28998791854901
C           -2.37688745067096       -0.21680554527716        0.07692668168474
N           -1.09362944531081       -0.18672413736158       -0.36139796091041
C           -0.82227276732841       -0.72130687675278       -1.50680349848602
C            0.59211202506610       -0.72035096389277       -2.04788163474054
C            0.66593120855750        0.17246201794978       -3.29631975591696
C            1.04994598784750       -2.15178915045237       -2.36351269182069
N            1.43464675773003       -0.16281173291706       -0.99256362591058
C            2.76294944312280        0.01243616196527       -1.09982666749915
O            3.44109995462117       -0.24668567454267       -2.08039995790048
C            3.32901832315970        0.57357657394110        0.15656760944734
N            2.66959508858534        0.85637735553959        1.23954285704365
N            3.57719198218351        1.33065249595513        2.13981293954542
C            4.73270201260114        1.30509420207693        1.54783382704627
C            6.04055031739927        1.71880071750748        2.10261771174874
O            4.64136697028380        0.83765111402278        0.29404294457849
N           -1.80558571353186       -1.28657312361014       -2.27447784246553
C           -3.14458595328955       -1.33816606512523       -1.93699836639135
O           -3.94207504619617       -1.87476981276226       -2.69219256321668
C           -3.48916655099177       -0.71131116210047       -0.62176184822296
O           -4.67598328657603       -0.62383988145874       -0.22920823968865
H           -3.26877843656329        2.75300177001738        2.13911702113812
H           -3.49589838359119        2.86265022571543        3.91522093521369
H           -1.95638117053785        2.24678816621108        3.23851800691754
H           -4.21098076537816       -1.38832337640850        3.41827170989232
H           -3.29994162511332       -1.97386380778035        1.98251938560107
H           -4.89053090254547       -1.25102555247207        1.78008649243823
H            0.38974422434879        1.19384267041423       -3.03854059493644
H            1.67699133975174        0.16532564046454       -3.69947976944410
H           -0.01856149907230       -0.20036042242955       -4.05550245004524
H            2.07839409781600       -2.14005408867761       -2.72011398499705
H            0.41891747994351       -2.58404033294788       -3.13696988021560
H            0.98836023166431       -2.76740750683129       -1.46754109443158
H            0.96656894481401        0.09103195098525       -0.12916398102497
H            6.45069852687921        2.54188126555140        1.51725432497030
H            6.74474259188524        0.88831679036837        2.05613146397985
H            5.91505905656086        2.03446467994088        3.13539632265872
H           -1.57044388511380       -1.70744048762550       -3.16052460061279
