46
 energy: -86.315768193953 gnorm: 0.000694134568 xtb: 6.5.1 (579679a)
C           -5.55670923257790        0.53023541464911       -2.55263247895171
O           -4.48523981356167        0.06939439641512       -1.69438271070101
C           -3.42781441008441        0.88442252856819       -1.57293327792305
O           -3.32914293434369        1.94189259279906       -2.12331882289671
C           -2.38470221492967        0.30624310459005       -0.65202943524056
N           -1.27080484964863        1.04981421311701       -0.53339861895047
C           -0.27933582791531        0.66612367854110        0.23170052586766
C            0.90393428091522        1.62108853237183        0.28104885131437
C            0.85532932489871        2.38528338984207        1.61431562336178
C            0.82194975999047        2.61036473166921       -0.89082234032000
N            2.13463337906193        0.83923970847721        0.14378661556540
C            3.37220529468319        1.39589719813639        0.21476325569448
O            3.61291152658708        2.53996621365301        0.54955579323060
C            4.43611519890491        0.42918076607585       -0.14347515914479
N            5.71187794733356        0.64352038582074       -0.22241014423301
N            6.28509349549396       -0.52983758843656       -0.60636995432699
C            5.32482083261078       -1.39106959764182       -0.73826252901910
C            5.42879856018574       -2.81190640180894       -1.13421756429884
O            4.12700039223540       -0.84816190782493       -0.46101971534179
N           -0.34146084944437       -0.47495579187661        0.95678700092894
C            0.69234057181019       -0.96744990223234        1.87533315672737
C           -1.44264917988911       -1.34563444245053        0.89978283878127
O           -1.46145139632709       -2.37015387937282        1.55486047357831
C           -2.48691058422911       -0.87348375799397        0.02865248217448
O           -3.61365580644937       -1.72984118604203       -0.12680295347647
C           -4.39469133471099       -2.07518858580369        1.06840485145792
H           -5.20732905940500        0.54251462189960       -3.58607284103204
H           -6.37065700288210       -0.17769857231541       -2.42633639091780
H           -5.85815748372138        1.53196728597019       -2.24353790809350
H            1.02102106204786        1.71978247598115        2.45774230998966
H            1.61682260640651        3.16291291386022        1.62253608934053
H           -0.12510441377929        2.84722011017879        1.71881458618596
H            0.82072471973642        2.06906215015860       -1.83503262111418
H           -0.09016171544329        3.19915553029422       -0.81754866744617
H            1.68221155779451        3.27709549021178       -0.85801564624189
H            2.05657545512863       -0.05323115394600       -0.31439823145844
H            6.45663548473213       -3.04436844134303       -1.40212823256780
H            4.77233883827538       -3.00970360075873       -1.98064672343195
H            5.11369891480586       -3.45070693392480       -0.30900001737562
H            0.22420301691061       -1.13055161283004        2.84574072693910
H            1.50572235333130       -0.25870051550081        1.96182132373938
H            1.05958145056838       -1.91882177156200        1.49208547884956
H           -4.20734447044295       -1.31007152308666       -0.82622130129203
H           -4.74867955796154       -1.16163134193673        1.54272559412846
H           -3.73661636897944       -2.64147980781108        1.72346800249324
H           -5.21792951771538       -2.68772811678041        0.71093270544570
