33
 energy: -58.550364674687 gnorm: 0.000613884374 xtb: 6.5.1 (579679a)
C            2.77912093577483        2.36487812617341        0.10586573293468
O            1.81225975192170        1.32002771457061        0.15978549123893
C            2.28813345083057        0.08548817064025        0.42611181160921
O            3.47322392719336       -0.10929044913709        0.63944897295659
C            1.24043506243899       -1.02299334854022        0.27638031767859
C            1.64427681057535       -2.22347729068607        1.14184380717070
N           -0.08040157195476       -0.55582314729134        0.69145391467007
C           -0.84438923810743       -0.01427982441377       -0.18592205479776
C           -2.20250897656077        0.49719808718418        0.30025292767411
C           -3.12115926102153       -0.71366884235162        0.51279249065007
C           -2.00554348248637        1.25088233949542        1.62270559955218
N           -2.84815149225666        1.39911458011771       -0.64574062498259
N           -0.53649392051191        0.12863849855583       -1.49967294234062
C            0.46016971170293       -0.74360124759757       -2.10552561434248
O            0.41093786186261       -0.89992965238565       -3.35879291984993
C            1.29424525894329       -1.32021381743966       -1.19926494685809
O            2.30038351322135       -2.22984859317709       -1.61829373954580
H            3.53326767054824        2.15361408691303       -0.65834879189580
H            2.24641631264129        3.28139488971514       -0.14202268814034
H            3.27707665805902        2.47619524392954        1.07375182164115
H            2.66135531866230       -2.53280832686109        0.90235438194556
H            0.96557522519152       -3.05488301821404        0.95652713352048
H            1.59169962301005       -1.95381142648507        2.19659767499136
H           -3.24978836791486       -1.25744502826874       -0.42308880335181
H           -4.09936895006669       -0.38322655081300        0.86138887642212
H           -2.68621211918927       -1.38577963881048        1.25256371464204
H           -1.37054945412051        2.12267492337109        1.46360582824516
H           -1.52813054647948        0.59941492105872        2.35515154934906
H           -2.96839938549934        1.58386332265463        2.00881411218874
H           -3.16683064709138        0.89913215245075       -1.46330997801029
H           -2.21205505071847        2.12824346064507       -0.93983890740597
H           -1.26270300899829        0.42535678756706       -2.13049799360819
H            2.20410738040253       -2.31503610256900       -2.57707815394781
