47
 energy: -79.522924489273 gnorm: 0.000321603589 xtb: 6.5.1 (579679a)
C            3.44820414353833        0.61004167423135       -1.97538611177718
C            4.09530145286541        0.88605733392031       -0.61186710376529
C            5.27247792055427       -0.02640593697921       -0.37985626050066
C            5.58212578805363       -0.43548344720591        0.84775615807799
F            6.66188154974095       -1.19847978044299        1.06341999946418
C            4.80901795287542       -0.09541463222992        2.02011268183970
C            3.63945755923448        0.53309016717451        1.88453196442170
C            3.05356436890840        0.84107694473274        0.52624545658600
C            2.15799117007853        2.10341302141466        0.55337053519797
N            0.82760298985135        1.53896824314746        0.41766476935754
C            0.86780155598118        0.24573873745368        0.24178081684804
O            2.08012206646234       -0.24150536398717        0.25584437834920
C           -0.30410665616166       -0.56252021291364        0.04545059447655
N           -1.47541868846294        0.14139315656223        0.10379207502600
C           -2.61874257634858       -0.45366056390300       -0.06672254736153
C           -3.85101665338001        0.42318825004328        0.11466147082850
C           -4.53963715798859        0.04112641512292        1.43338645820427
C           -3.42024144780675        1.89674146789697        0.17523029575569
N           -4.77973772275919        0.23484947239059       -0.99529569177540
N           -2.68963867667724       -1.79464278839820       -0.32032510596103
C           -3.94517270002661       -2.52745129194933       -0.53365215195314
C           -1.56650360348833       -2.61484849529372       -0.37671124916886
O           -1.66960277620545       -3.81220700023467       -0.57707266944878
C           -0.29148359580827       -1.91973952034769       -0.17567696773663
O            0.79438430581362       -2.68309232205949       -0.22370866309246
H            2.59494213685073        1.26867477668900       -2.12734609917795
H            4.17572876625510        0.79056450676850       -2.76525551089427
H            3.10936802691480       -0.42285448449811       -2.03402409577255
H            4.48675661487648        1.91468231626367       -0.62653505121160
H            5.88355244623268       -0.27521195660139       -1.23744204612490
H            5.20694496866874       -0.36298530043822        2.99136521951952
H            3.01563205263142        0.77361468674149        2.73558365900555
H            2.23566222352886        2.65299310559406        1.49349753357104
H            2.35095954040246        2.78558367864683       -0.27820825248878
H           -0.02300795799808        2.07993635355767        0.42086633766708
H           -3.83139647274494        0.12149605331572        2.25707003152254
H           -5.36995472798557        0.72168764584620        1.61613533028841
H           -4.92434084614060       -0.97617874309772        1.39590239138853
H           -2.77551954276972        2.07106452056986        1.03447800484466
H           -4.30360169538669        2.52754783451019        0.25890101605477
H           -2.87840735849388        2.16478753175221       -0.72951163059728
H           -5.61865717782156        0.76733705481296       -0.80694480456963
H           -4.36368995147591        0.60596018645759       -1.83836839643247
H           -4.74277603633230       -1.83158466598185       -0.77431353248477
H           -4.18411128684386       -3.09251923125263        0.36760804641850
H           -3.79584133725182       -3.22049613392736       -1.36242987653679
H            1.61312704603236       -2.19433426386169       -0.04345240588306
