42
 energy: -82.978607607155 gnorm: 0.000702119292 xtb: 6.5.1 (579679a)
C           -3.74908757583870       -0.17465954140248        2.04559216801240
O           -3.63611753961062        0.97958984465801        1.21384390281612
C           -3.79687764585642        0.85068314346288       -0.12957545953552
C           -4.39056297779909        2.10338687529053       -0.72768712601845
O           -4.15765331458243       -0.37340156979461       -0.64021392864571
C           -2.80965780252147       -0.03086764770455       -0.93406937448141
N           -1.84511121745057       -0.70875592397590       -0.16151593464962
C           -0.63787166329684       -0.76063208001755       -0.55794152737036
C            0.42477312768088       -1.46985792604930        0.25557214942585
C            0.70251168230537       -2.83527901469616       -0.38057632066503
C           -0.00665332100843       -1.62002658738305        1.71567401572700
N            1.65538240856316       -0.68078572522313        0.18078547381644
C            1.65595858753767        0.63575366242308        0.49433161196927
O            0.64929542345412        1.28901085314159        0.71160149070167
C            3.01361314190416        1.22730759215868        0.50258611288165
N            3.34385103789757        2.46116793487225        0.72668653893553
N            4.69939657035325        2.53159423468923        0.61493313778864
C            5.11421226353985        1.33638041520336        0.32962658561077
C            6.50407709375540        0.88435906863872        0.10579876136323
O            4.09709246253790        0.46342195444373        0.24440431558414
N           -0.21031826296065       -0.25362639678756       -1.77146307142995
C           -1.02534740535077        0.29326355434133       -2.71837826404789
O           -0.60387646517063        0.68717601815077       -3.78440138201924
C           -2.50442213566081        0.32767339656711       -2.33662582779009
O           -3.34002472328478        0.67529424059616       -3.14376439648223
H           -2.86075227169687       -0.80423489351909        1.95682233026406
H           -3.83935785265378        0.19452842611970        3.06642581141804
H           -4.63369332147573       -0.75760505688994        1.77761231177191
H           -3.71763637398623        2.94303616146879       -0.56592339179425
H           -5.33021527909627        2.30444145027108       -0.21565158256935
H           -4.58426339856798        1.97718549183940       -1.78865880529443
H            1.47390685739641       -3.35440981726708        0.18448666690794
H           -0.20582213803612       -3.43589051917704       -0.37365947815981
H            1.03975429921126       -2.71123229156060       -1.40802726788758
H           -0.90047611214540       -2.23911128102110        1.76954804707574
H            0.79060823349483       -2.09338537325922        2.28439768298437
H           -0.22224084304446       -0.64236094812565        2.14533285862392
H            2.52858829463550       -1.17430263400078        0.11606423539469
H            6.77976719772742        0.14765905950067        0.86028738373073
H            7.18125698807258        1.73340951361348        0.16027764311508
H            6.58577067142867        0.40957413821444       -0.87145319746061
H            0.76822329960225       -0.33547080180429       -2.00319789961511
