42
 energy: -82.930607318333 gnorm: 0.000630352732 xtb: 6.5.1 (579679a)
C            4.34789688604941       -1.37753724977121        3.20081340662085
O            4.25119754164166       -0.65055378652042        1.97323774310841
C            3.03018875823910       -0.50287629566337        1.46481243779403
O            2.03280501722599       -0.94122298752152        1.99437697309470
C            3.01142483469420        0.24815636664179        0.17383004402569
N            1.79467286421363        0.33791000970944       -0.40049565905020
C            1.67727260204739        0.96441133257960       -1.57046052796609
C            0.29407507215342        1.01873842166493       -2.19337236364519
C           -0.08231165971495        2.47834431638083       -2.48063304679824
C            0.29740549355877        0.19125594112420       -3.48701666722767
N           -0.64084354697136        0.43986400874428       -1.23179517988292
C           -1.95825236316463        0.31570124461777       -1.43589345821290
O           -2.57834991095683        0.65377364305249       -2.42824295829599
C           -2.62076893337165       -0.30672388468318       -0.24778743068294
N           -1.97513694722730       -0.68328085872626        0.87745636640025
N           -2.83241985370155       -1.16348921184422        1.69438195231271
C           -4.13859874656715       -1.11155481905242        1.09648313322522
C           -5.06275900968796       -0.19762158063708        1.90572635923458
C           -4.71027642739094       -2.52181073513272        0.93238151524607
O           -3.89946672824022       -0.53349527486605       -0.18724239423295
N            2.64615406544685        1.52112565296994       -2.26675510041530
C            3.91198968089207        1.50051270104023       -1.75763902988229
O            4.89007697497892        2.01373026643834       -2.30438903809667
C            4.10031671118695        0.81514770312020       -0.46278600205454
O            5.34055248605060        0.81465680400238        0.01225839387227
H            3.96605482316672       -2.39247500890900        3.06636991204971
H            3.77112853740400       -0.87571843734978        3.98133806598362
H            5.40268360933253       -1.40288610156591        3.46634192045890
H           -0.15001423416014        3.03650347095025       -1.54806893062031
H           -1.03793234306864        2.52970142572419       -2.99904419219009
H            0.69205206408958        2.92080489792365       -3.10551604567317
H            1.06832407487599        0.58170200365742       -4.14990658316187
H           -0.66986039582116        0.25663982155236       -3.98171042698045
H            0.51443889251121       -0.85164778009811       -3.26125651038221
H           -0.22607616313104        0.10549007938732       -0.36420428724145
H           -6.01425650508204       -0.10631181697959        1.38782802132041
H           -4.60483610241270        0.78414281614952        2.00386377921559
H           -5.21912545246216       -0.63032028062173        2.89013313614227
H           -5.67470218347706       -2.46061844186897        0.43438400414213
H           -4.02777969345703       -3.12182767011575        0.33470756463093
H           -4.83030580568522       -2.97172247854480        1.91422268639611
H            5.91336301598170        1.27538177303888       -0.63639358258173
