16
 energy: -33.441363522024 gnorm: 0.000666698253 xtb: 6.5.1 (579679a)
C            2.82700976835085       -0.40856231070656       -0.03948042650192
C            1.36823414522319       -0.22575572570880       -0.01726956929807
N            0.44011213673837       -1.14583712963040        0.03090599790153
N           -0.71606970008504       -0.47732475075423        0.02810119104791
C           -1.97405259603959       -1.19029636264881        0.08212060739471
C           -0.48672335897857        0.81916687649332       -0.01801739972223
C           -1.50455689517716        1.90940753413837       -0.03888139072630
O           -2.66877134733475        1.64204301736282        0.01848889518913
Cl          -0.86201137938023        3.47009502377275       -0.15034541441230
O            0.82414631206072        0.99833978236607       -0.04978500092633
H            3.27936501271418        0.15121144516314        0.77960421293855
H            3.07020782739633       -1.46445674809542        0.04849699491874
H            3.22995828036114       -0.01136442220112       -0.97220583164121
H           -2.63994783833788       -0.78488180612754       -0.67834132828830
H           -1.77004872477529       -2.24367866038792       -0.08990922368642
H           -2.41685264273635       -1.03810676303569        1.06651568581253
