42
 energy: -83.596069476132 gnorm: 0.000942154779 xtb: 6.5.1 (579679a)
C           -5.65870893215671        1.75310286712329        1.87857090521124
O           -4.53671732500979        0.95283941746955        1.58079784850248
C           -3.52866471488632        1.59371496231419        0.85727950650937
O           -3.68803548623308        2.79732327399505        0.56247244028037
C           -2.40619856899946        0.79565148777694        0.53637767628789
C           -2.23124635566567       -0.63471000462911        0.86489669738257
O           -3.11900615046697       -1.33208952237822        1.45371638314509
C           -1.02009849063707       -1.17874187374342        0.42502192478740
O           -0.61161209873791       -2.49805190306613        0.64410751628938
C           -1.46364728523330       -3.50063364861088        0.11513840875227
N           -0.02197080319475       -0.40828261000616       -0.20031046392780
C           -0.33154100370106        0.90362658795829       -0.52710544976685
C            0.76272061809079        1.65899351212101       -1.26069706583982
C            0.63313575783392        3.16430260947659       -1.00599276885744
C            0.67801026447628        1.36618745998386       -2.76311606817735
N            2.07172384081677        1.17974424647978       -0.78391727758051
C            2.13774065747658        0.85153660023892        0.59140133785918
O            1.62306136472643        1.58283886650961        1.46648857655612
C            2.93730017263948       -0.29559598276488        0.88902126736913
N            3.23400640470728       -0.79303633235018        2.08973528755073
N            4.01679317123970       -1.89559964877768        1.87055325016744
C            4.16029413910231       -2.02211173864691        0.59397088239809
C            4.94164512399358       -3.05996072368673       -0.12276125915247
O            3.51127053395302       -1.06108704450149       -0.10924468533676
N           -1.40852415803440        1.48397436103096       -0.15173595225897
H           -6.14261099330768        2.12263350757018        0.96532807303991
H           -5.38506794931177        2.61960348479771        2.49492953100616
H           -6.36679913154983        1.13240232995326        2.43039884324188
H           -1.61392186872689       -3.36916488852754       -0.96337190709455
H           -0.97557930042501       -4.46162394231339        0.28861209959904
H           -2.44171761482636       -3.49908822435919        0.61305268989806
H            0.61121454545246       -0.90762162990798       -0.80333108537833
H            1.40063371141562        3.70307377553994       -1.55944406261947
H            0.74832870684383        3.37536664491882        0.05768661091371
H           -0.35014554257037        3.50733894554260       -1.32892536166715
H           -0.27035740962897        1.72762975000381       -3.15939399775871
H            1.49098886472983        1.86027210176032       -3.29322635221705
H            0.74506931119787        0.29439037971758       -2.94458542441892
H            2.45022146598535        0.45182854127966       -1.37385944710608
H            4.28878112996570       -3.67177669708508       -0.74542015820416
H            5.68142805980649       -2.59247916562359       -0.77215790693782
H            5.44780333884321       -3.69672013258835        0.59903993755160
