21
 energy: -30.781861296898 gnorm: 0.000710282519 xtb: 6.5.1 (579679a)
C           -0.31581258593796       -1.54580553163563       -1.48949113396390
C            0.47214587111462       -0.60794076891035       -0.62274485539153
C           -1.72241045865060        0.85346096316626        0.57235072004659
N           -2.71902471558127        0.07202857221035        0.36688906030920
C            1.41460303658044        0.25656858478016       -1.18051893889636
C            2.18556698743238        1.08113655475018       -0.37635301697280
C            2.00562682599521        1.02757911056390        0.99870150849940
F            2.75942843788479        1.81203353285709        1.77570389133455
C            1.07906055013830        0.19501811812954        1.59088833889177
C            0.28918440494081       -0.61157221280133        0.76727033980374
H           -1.30266727830464       -1.72369365853078       -1.06460122921663
H            0.19787820269357       -2.50732010288049       -1.55292203346259
H           -0.42551781346642       -1.14775865465531       -2.49711119849212
H           -1.45070023707903        1.11936827045607        1.58280878788401
H           -1.26543282303170        1.37001804898079       -0.25949777649792
H           -3.04400691447874       -0.14014719411581       -0.56405143379582
H           -3.20274849845187       -0.38363304863222        1.12549024126661
H            1.55048125265973        0.27857452111287       -2.25516804410642
H            2.92068665933798        1.75247641837327       -0.80193318469890
H            0.96314402212518        0.17367554392787        2.66641083866756
H           -0.38948492592081       -1.32406706714679        1.21788011879225
