33
 energy: -57.866942295713 gnorm: 0.000799178674 xtb: 6.5.1 (579679a)
C            3.90907303263939        2.54366545819514        0.71397792345910
O            2.78792880319316        1.69135274183664        0.45195926072730
C            3.06212496267549        0.47368453345909       -0.01406835686774
O            4.18275332000219        0.07536137606102       -0.22167876972454
C            1.82213347658060       -0.32607876646834       -0.24681798660446
C            1.81406981384343       -1.58872549108189       -0.77004035600762
O            2.90254063064880       -2.26239030375666       -1.13330683507144
C            0.54867566610903       -2.28839953086412       -0.96058986337400
O            0.50497054667413       -3.42348011828270       -1.41186399981447
N           -0.59525230635357       -1.57960269345309       -0.60688358343003
C           -1.84653910459751       -2.30635761756460       -0.81497716496813
C           -0.49803213486788       -0.32126170572137       -0.06237022303666
C           -1.69688646950249        0.53364673363575        0.33184135723510
C           -2.44837028600449        1.07097667826396       -0.88729527798480
C           -1.22221496644513        1.69752023311958        1.20636085601775
N           -2.67154208696349       -0.24335863164334        1.18889775088172
N            0.63894825760793        0.26821634742149        0.09782317935140
H            4.53056920937786        2.63465679256871       -0.18108441078967
H            3.50104871070240        3.51296570189879        0.99346953996547
H            4.50648517913362        2.13318762944121        1.53221328213480
H            2.63719357448800       -3.13923902723496       -1.46915335851180
H           -2.19367845645342       -0.74502894608312        1.93027436531474
H           -2.61371541123270       -1.64129097833669       -1.19504577099171
H           -1.65624358318630       -3.09033563854208       -1.54855761304884
H           -2.16320819622052       -2.76360017915692        0.12048892132782
H           -3.26445362685318        1.71342855823455       -0.56101242810948
H           -2.85792615986628        0.27104422171100       -1.49850382281066
H           -1.75853584219257        1.65661940401140       -1.49431486596239
H           -2.07681538958508        2.28953690718824        1.52782710514484
H           -0.54764156381749        2.33006688839182        0.63144634637902
H           -0.69055604019054        1.32331414626823        2.07932573590672
H           -3.32495815284158        0.40266910166318        1.62005732161881
H           -3.22194640650266       -0.90276382517999        0.65160074163957
