42
 energy: -83.628678875714 gnorm: 0.000274299730 xtb: 6.5.1 (579679a)
C           -6.23797228716949        0.10386923474866        2.14358367329358
O           -5.21480232023731        0.45828120861935        1.23820715457664
C           -4.08796558744906       -0.35460231929761        1.26902018558883
O           -4.06305754042058       -1.29633895791695        2.07818710983755
C           -3.06572941716642       -0.00912439138931        0.34244829631014
C           -3.10698467641291        1.06851517212690       -0.58147488707100
O           -4.00911523280796        1.93327142820445       -0.64050052016747
C           -1.95928041467679        1.12180656355264       -1.66365126386101
C           -1.63765957010614        2.63387202813779       -1.92925605381584
O           -2.19405499165003        0.42087185684933       -2.73921640478975
N           -0.68212041737822        0.60650829105163       -0.92324976837482
C           -0.87819319237060       -0.56918537942789       -0.22745986490708
C            0.30058996327819       -1.53727777584544       -0.17898057416903
C            0.36807883453784       -2.29546002024346       -1.51273052814367
C            0.14826793094263       -2.50977713598286        0.99457165729735
N            1.52482867212270       -0.73679250586565        0.00142855663304
C            2.76487998677503       -1.23652908825010        0.05316714327420
O            3.07546178223495       -2.41831270076758       -0.02719156915671
C            3.77171881280571       -0.15063591892384        0.23017524744380
N            3.52039081110913        1.11925728047752        0.34645815736938
N            4.72481596453945        1.74927063055153        0.47802190487623
C            5.63125192533428        0.82396058863444        0.43244858632754
C            7.09826217539282        0.99130183986850        0.53104002888044
O            5.09632015102946       -0.39757532950942        0.27895689955946
N           -1.94876552206742       -0.88490644693379        0.39334560025094
H           -6.61152012062325       -0.90934740714176        1.94939031752177
H           -7.05293933431967        0.81722159595725        2.01181311722102
H           -5.88667001621581        0.14647098419161        3.18196685905436
H           -0.83595071597624        2.70437109617717       -2.66292095781215
H           -1.33621234256621        3.14082617483738       -1.01253843333606
H           -2.52864538035051        3.11552139898552       -2.33242048604831
H            0.06078003425262        0.53186179979602       -1.60770399679796
H           -0.55357813563013       -2.86178346166553       -1.64645891916364
H            1.20940307755186       -2.98556223979500       -1.52837332432561
H            0.47072383678109       -1.59085371437039       -2.33788505039125
H            0.93395370348292       -3.26277891966746        0.97982357618682
H            0.19349659973981       -1.96497024492657        1.93745303390984
H           -0.82217505971483       -3.00190077938331        0.92422395090527
H            1.41897259060511        0.26633265518734        0.08686614980245
H            7.47511499492590        0.47668242343583        1.41470350232779
H            7.34182051370457        2.04848297180198        0.59727855161129
H            7.58425791416316        0.55823451410945       -0.34256665772959
