47
 energy: -80.188214400035 gnorm: 0.000188581361 xtb: 6.5.1 (579679a)
C            4.21932553742532       -1.96044803991714        1.52157570441018
N            3.01013040348265       -1.26796599149774        1.08471951963076
C            2.92848490800652       -0.51922944028847       -0.06872110085466
C            4.12941628593849       -0.31469917074434       -0.98764589473950
C            5.00380650647632        0.81072903177241       -0.41408084981942
C            3.63069882280784        0.09579515343557       -2.38404530350024
N            4.92594464429000       -1.53508804784416       -1.09331637760232
N            1.84827249534735        0.10212261312158       -0.40688525556406
C            0.69832534890433        0.04508538914032        0.34362744984864
C           -0.41294499544797        0.85749703507213       -0.20195632881683
O           -0.32263531767313        1.42973704572169       -1.29771294939285
N           -1.51318683400544        0.98129509971467        0.57900164462108
C           -2.69579608728153        1.67435935535638        0.12806661148465
C           -3.81770326333825        0.70795967553051       -0.45212920738986
C           -3.17980945094704       -0.12542528982553       -1.58826936921276
C           -4.33038629899921       -0.19266735800017        0.64238245762865
C           -5.57918686494364       -0.06894298522477        1.18208501115237
C           -6.47454738882509        0.87445610068487        0.67399409575827
F           -7.73141398603479        0.97378432593916        1.22992057989640
C           -6.15252882195676        1.67288507745110       -0.42333199469446
C           -4.91571426574157        1.58538478305336       -0.99970895633838
C            0.70879839830031       -0.73412906229944        1.48403884101223
O           -0.37594599011044       -0.90851119357580        2.29523926916758
C            1.88640025956057       -1.43409153190237        1.89653425520573
O            1.91776513270151       -2.13529762154934        2.92014057239069
H            4.10622845253285       -2.20928393521567        2.57737839641188
H            5.09011972856847       -1.32472466286860        1.39083180688702
H            4.35757400415424       -2.87597781930048        0.94680118800814
H            4.41080007790832        1.71746879565650       -0.29505540662950
H            5.41604335768395        0.53276197268384        0.55437068287089
H            5.82975171198801        1.01751493908645       -1.09311055230886
H            4.48260952801217        0.21637784256502       -3.05068906933602
H            2.97240120396371       -0.67287635647534       -2.78763627432296
H            3.08163533814924        1.03588644607107       -2.33213777567757
H            5.81669465926527       -1.31460663265551       -1.51394462771159
H            4.46046662130270       -2.19730254098029       -1.70063539166895
H           -1.58319713933765        0.46588143984556        1.44130146186508
H           -2.41150530383882        2.39233288127926       -0.64869362962177
H           -3.13041171358307        2.21877338073111        0.97115505887291
H           -2.42481380977635       -0.80375148547073       -1.18907131922693
H           -2.71319524515209        0.52460192430767       -2.32996313211012
H           -3.95342953660051       -0.71813325421474       -2.07670437000962
H           -3.64198197007650       -0.94123653712534        1.02175848761857
H           -5.89530573243933       -0.71712491888722        1.99364909429809
H           -6.90284990120490        2.34367872484672       -0.83048077544771
H           -4.67347014410958        2.18671680476888       -1.87029633575025
H           -0.09973136534344       -1.49157296197933        3.02592005870142
