4
Coordinates from ORCA-job /lustre/hpc/kemi/ree/PhD/applications/universalRXNpredictor/src/uniRXNpred/test/calc/methyl_cation/xtbopt E -39.584709529030
  C       0.000308     -0.000076      0.001328
  H       1.074373     -0.247862      0.007006
  H      -0.751923     -0.806069     -0.012078
  H      -0.322757      1.054007      0.003745
4
Coordinates from ORCA-job /lustre/hpc/kemi/ree/PhD/applications/universalRXNpredictor/src/uniRXNpred/test/calc/methyl_cation/xtbopt E -39.584989731371
  C       0.000312      0.000141     -0.003840
  H       1.062028     -0.244977      0.008645
  H      -0.743441     -0.797192     -0.010226
  H      -0.318898      1.042028      0.005422
4
Coordinates from ORCA-job /lustre/hpc/kemi/ree/PhD/applications/universalRXNpredictor/src/uniRXNpred/test/calc/methyl_cation/xtbopt E -39.584916330860
  C       0.000113      0.000137      0.011547
  H       1.060531     -0.244648      0.003502
  H      -0.742311     -0.796254     -0.015336
  H      -0.318332      1.040766      0.000288
4
Coordinates from ORCA-job /lustre/hpc/kemi/ree/PhD/applications/universalRXNpredictor/src/uniRXNpred/test/calc/methyl_cation/xtbopt E -39.584999098151
  C       0.000184      0.000205      0.000131
  H       1.062084     -0.245065      0.007320
  H      -0.743421     -0.797487     -0.011551
  H      -0.318846      1.042346      0.004101
4
Coordinates from ORCA-job /lustre/hpc/kemi/ree/PhD/applications/universalRXNpredictor/src/uniRXNpred/test/calc/methyl_cation/xtbopt E -39.584999120886
  C       0.000144      0.000248      0.000096
  H       1.061997     -0.245095      0.007330
  H      -0.743332     -0.797525     -0.011538
  H      -0.318809      1.042372      0.004113
