42
 energy: -82.976945669995 gnorm: 0.000612764864 xtb: 6.5.1 (579679a)
C           -5.40363968587378       -2.58775672202306        1.50772083932203
O           -4.24932743440984       -1.89447920260337        1.03246314192532
C           -4.14415070925119       -0.60205646388162        1.39614772086736
O           -4.97857779770013       -0.04260412034146        2.07881282539993
C           -2.93334917418217        0.01634443007729        0.87792501600520
C           -2.53872512117063        1.32442872464668        1.09552969079788
O           -2.90152494281707        2.33289130194722        1.62766703771374
C           -1.13775925152744        2.46244948274213       -0.70916249265700
C           -2.31064647907177        2.42705623724566       -1.61731093710368
O           -0.26761907532008        3.27409328871077       -0.67535726620085
N           -1.11468465885447        1.38590070434963        0.30196479390476
C           -1.01264791188829       -0.00247153373708       -0.21053409910145
C            0.18944437073434       -0.47183534155973       -0.98028412479028
C            0.24858298495358        0.19108086914707       -2.36346543701140
C            0.10814811049959       -1.99823638807804       -1.11268892222496
N            1.37812080916151       -0.10412266512973       -0.19885332765497
C            2.64138524869204       -0.38197886980137       -0.60237210295559
O            2.95910508787896       -0.82374207580719       -1.68982644010480
C            3.61225549261067       -0.05612671384998        0.47222015227466
N            3.31620515449105        0.37202757944309        1.66304763227491
N            4.49358969190318        0.52737005381880        2.32847868528367
C            5.43446493533268        0.18203151201839        1.50137764722605
C            6.89309497111354        0.17266967081521        1.74757851692683
O            4.94030249656138       -0.19706407451196        0.31374257352535
N           -2.01410418925209       -0.70402567088211        0.12340068046302
H           -5.41461811956555       -2.60215177235954        2.60097170416935
H           -5.33843527025808       -3.60295384700504        1.12016033824475
H           -6.31416780916457       -2.10361953254081        1.14477852930082
H           -2.07867484724553        2.96486564449900       -2.53355027935104
H           -3.13141892291045        2.94057350183461       -1.11138118862452
H           -2.62235028091161        1.40852520424889       -1.83350955221672
H           -0.37935742888958        1.60822900152934        0.97029834382121
H            1.04962737577022       -0.24978278311387       -2.95382774019823
H           -0.69632847894912        0.03375689231436       -2.88032744177145
H            0.43199249000570        1.25876223470421       -2.26464283261668
H            0.08934889042659       -2.45714470238375       -0.12567475051249
H           -0.80221287560364       -2.26684028560002       -1.64582239753626
H            0.97026299260031       -2.36654097505946       -1.66514956840137
H            1.25180711715919        0.13277223290680        0.77328970815022
H            7.09968037272881        0.57797441238035        2.73512244112798
H            7.40276749400890        0.76882628056152        0.99098827570100
H            7.27413637819305       -0.84709651967111        1.68656860660038
