46
 energy: -87.006104801300 gnorm: 0.000459905934 xtb: 6.5.1 (579679a)
C           -5.08689184259204        3.25104877912865        0.54755268797217
O           -4.17849455659444        2.16342169028769        0.48004222236097
C           -4.53261473076026        1.15382400355971       -0.38546672818289
O           -5.57049153227395        1.23053881543069       -1.04196733312924
C           -3.57475568885807        0.07309044892695       -0.40040856230664
N           -2.46860826859172        0.19799036678897        0.41457422824388
C           -1.55584675235555       -0.71169974152468        0.48283481987686
C           -0.40730449894338       -0.44424759480420        1.45792224035326
C           -0.53155526425710       -1.40459854717145        2.65263192636169
C           -0.51480817826750        1.00664585484229        1.96293855238362
N            0.85670391722882       -0.63944188628688        0.73849665037567
C            2.08471701303085       -0.27573981927310        1.38800904642094
O            2.22114763937287       -0.32926624680649        2.63766642041909
C            3.06979477278564        0.05248469086908        0.46121157659710
N            2.93319288735569        0.14133552538413       -0.91261011160797
N            4.13824806935630        0.53756116398486       -1.32695507037023
C            4.37551011964192        0.73020076505691       -2.73822124017289
C            4.99701394619985        0.69661891537764       -0.34711051536171
C            6.41247630825853        1.12412247658606       -0.43843228818083
O            4.40486213777386        0.41122729318352        0.82655538737331
N           -1.62677630056681       -1.87638599600100       -0.25628505095174
C           -0.67197149413617       -2.97969776309880       -0.20425204203001
C           -2.72491294246171       -2.11544912092918       -1.10622216800157
O           -2.80379359031660       -3.18106788697909       -1.75245006372072
C           -3.69887366515641       -1.09070431423368       -1.17085921799236
O           -4.76031206459641       -1.31764276230870       -2.00349029869477
H           -5.18923347640500        3.73632946151614       -0.42916579882910
H           -4.68346171298055        3.96167425465710        1.26845433874964
H           -6.07578258079400        2.91430364019135        0.87740263003242
H            0.17048102633353       -1.12438711355814        3.43604682036434
H           -0.32455915862295       -2.43078770504135        2.35676426599664
H           -1.54403047134742       -1.35234625240086        3.05350168942419
H            0.29043037188429        1.21408939222676        2.66583362668088
H           -1.46980586944340        1.15710314428886        2.46484794389987
H           -0.44724098546287        1.70199157518550        1.12676291221469
H            0.81404514584890       -0.22927581933107       -0.18951020613757
H            4.75757572566270        1.73507442476653       -2.90984296504179
H            3.43183553365368        0.59270450158204       -3.26077484313881
H            5.10557243744745        0.00145391584976       -3.08816794642538
H            6.84832327184086        1.13431580845504        0.55823384057374
H            6.98124886620277        0.44230091546896       -1.07178259011495
H            6.48698932155562        2.12289951967676       -0.87118856387198
H           -0.52371851871087       -3.35432521337809       -1.21861088554738
H            0.28245772543841       -2.65045750043082        0.19645048573144
H           -1.07556876826796       -3.78904560894803        0.40888826443246
H           -4.62121232411979       -2.18778345077816       -2.41501508703859
