42
 energy: -83.595053338819 gnorm: 0.000589058264 xtb: 6.5.1 (579679a)
C           -5.30450177746997        2.21025502828789       -1.59338576540988
O           -4.04017886382393        1.64027416727029       -1.33968599113117
C           -3.81899894861856        1.26288490418119        0.00568316377569
O           -4.72997637475276        1.47393019493941        0.82282760014760
C           -2.54088439862871        0.69847603324574        0.20967995097672
C           -2.06906649489610        0.21429237078669        1.52664995793206
O           -2.79264718257514        0.23204508541803        2.56691441231356
C           -0.76434620993599       -0.30159013111285        1.51450661679100
O           -0.11112159675158       -0.75850843962829        2.65832256258614
C            0.05376816288403       -2.16429410796780        2.75812312664566
N            0.05007003595456       -0.27469169120093        0.35961352238285
C           -0.54457239437103        0.11107587947895       -0.83682008869741
C            0.38038774062750        0.05549555423535       -2.04012374779712
C            0.35233359742810       -1.34654906270836       -2.65885500722286
C           -0.02921953805731        1.10485264445423       -3.07780259349086
N            1.75693588267371        0.31537199491031       -1.57449714573884
C            1.84103218743139        1.23456690315111       -0.49271710118496
O            1.29656199298337        2.35854528879420       -0.54910980005162
C            2.68905031384166        0.81456018892801        0.58178440144164
N            3.00467466194141        1.48474578652418        1.68622047504645
N            3.77438454414080        0.64099528375817        2.44581959433129
C            3.89122855870740       -0.46665183096602        1.79494872124492
C            4.63842831225273       -1.67943985286088        2.20866925267434
O            3.24001444009035       -0.45203404493480        0.60621663005815
N           -1.71868943594101        0.61300822127482       -0.91027881987405
H           -5.45501111569733        3.13404135036752       -1.01848336739644
H           -5.35107375715940        2.44268410522645       -2.65872744581810
H           -6.11690959196334        1.51507572317578       -1.34415333033418
H            0.71775274232638       -2.54735911198874        1.97380340970971
H            0.50552703182020       -2.36994249114570        3.73002215248368
H           -0.90807159538048       -2.68784314865963        2.68968574211979
H            0.74446754737269       -1.00326190666663        0.29890818920210
H            0.62596735565879       -2.09402705198928       -1.91507197179792
H            1.05319683889416       -1.40948616603315       -3.49017925645399
H           -0.64890095822482       -1.57087402835771       -3.02556741170820
H            0.60722013384694        1.02749661846790       -3.95799701832896
H           -1.06748147964511        0.94515673890575       -3.36996083575317
H            0.06933816703449        2.10579865718765       -2.65588306717827
H            2.23932108478902       -0.54894484340001       -1.36585315590194
H            5.06948524503142       -1.52335755661058        3.19450310117505
H            5.43593270056817       -1.89347317554454        1.49763808026769
H            3.97457343556849       -2.54330108116104        2.23626725795217
