47
 energy: -79.484192418370 gnorm: 0.000383681832 xtb: 6.5.1 (579679a)
C            4.13099120939079        0.97243086892444        2.25532332500622
N            2.92733534880040        0.74389937562086        1.44931009314194
C            2.90945820586824       -0.01441149761695        0.30547006048022
C            4.15891046204900       -0.69005778745244       -0.24492007906280
C            4.96748554519480        0.33956235947483       -1.04889173203692
C            3.73866961984097       -1.84206184937441       -1.17446655407630
N            4.97646921271814       -1.21327784688905        0.84184740795235
N            1.82998717274698       -0.16637850637286       -0.39695465597505
C            0.64366363551900        0.39762132856319       -0.02692726266537
C           -0.48616329556563        0.09805024761278       -0.94624750891115
O           -0.42599960706911       -0.73266692964172       -1.83266178361794
N           -1.62375574310713        0.84729517757209       -0.74418621814507
C           -2.78938583560809        0.60871872372596       -1.50259590441046
C           -3.80486176803592       -0.40869747869119       -0.72721674171561
C           -3.01241460870752       -1.70396337686926       -0.46048067080670
C           -4.18943178949859        0.28324117635900        0.50871171614053
C           -5.43314909024112        0.81108907500827        0.69630157919208
C           -6.39669113712009        0.62643206734028       -0.30309854295099
F           -7.58901055685238        1.13229626147542       -0.12122524173388
C           -6.14927607956023       -0.09229260579753       -1.47909260631894
C           -4.90752948725703       -0.62437034098705       -1.67171681937252
C            0.58039409583772        1.11613870967422        1.13278673467713
O           -0.54125516351787        1.67466163946001        1.62489775737351
C            1.77126668430434        1.31524020481183        1.94126637839416
O            1.73171773199800        1.96459659262517        2.98246956806635
H            4.99267323871619        1.11085460720064        1.61104891860819
H            3.96938925037177        1.86714147477793        2.85621122436004
H            4.29959084964422        0.11684735243386        2.90712065197066
H            4.34755081667808        0.75746029115657       -1.84120733797419
H            5.31607800572255        1.15060095821708       -0.41217675436211
H            5.83258393737958       -0.14741584643949       -1.49665648853685
H            4.62830768012298       -2.35352470423657       -1.53768689768907
H            3.17378249108906       -1.45936380405111       -2.02347104658288
H            3.11744867467115       -2.55282568352193       -0.63186833292474
H            4.52322239204399       -2.01751706657134        1.25498378446430
H            5.87160505165556       -1.50998936728050        0.47868642524451
H           -1.66918591473812        1.51702694574041        0.00758317893339
H           -3.33302597987874        1.53524230017492       -1.67353482488651
H           -2.52592719299688        0.12048826614638       -2.44248425056474
H           -3.67810832790088       -2.43923377082229       -0.01327349029518
H           -2.19567624032739       -1.49552639270246        0.22689241095328
H           -2.60976840404398       -2.09587197938651       -1.39273955892528
H           -3.42340885855468        0.40327083741453        1.26635979889172
H           -5.69605282340715        1.35050046976211        1.59783154008809
H           -6.94863999422467       -0.23047253433756       -2.19688853963576
H           -4.69443339587259       -1.20162671663274       -2.56428526497272
H           -0.31542801827574        2.13084077440365        2.46153555521006
