20
 energy: -37.626354676219 gnorm: 0.000567493344 xtb: 6.5.1 (579679a)
C            3.16485238825942        1.29641619045318       -0.15585088533526
O            2.93618451689448       -0.11156009456397        0.07747978848855
C            1.76850276542828       -0.59026080938546        0.17839062011072
C            1.59749617564797       -2.02975772498691        0.41841344867884
O            0.77023828323987        0.23881094820562        0.06026161752448
C           -0.54365651644444       -0.08511656637232        0.14335083888308
N           -1.08778523368731       -1.23219477947713        0.36621180140622
N           -2.43285182316302       -1.00029737639582        0.35026193515721
C           -2.60325208647233        0.26431373272641        0.11860388032382
C           -3.86931010281275        1.01337658815549       -0.00024871177106
O           -1.41925833898986        0.90419136843582       -0.02290755296577
H            2.71466317192677        1.57515668884663       -1.10839172371861
H            2.71285455820539        1.86841663243168        0.65418192028181
H            4.24508324422396        1.41889566549790       -0.17553282916588
H            2.56623470674326       -2.51918102060349        0.48806382341955
H            1.02068667159826       -2.17445742618296        1.33486960662765
H            1.00189273887706       -2.45798351264679       -0.39118206727892
H           -3.95877655754986        1.42845949486091       -1.00485422470966
H           -4.70797116923712        0.34973572136431        0.19810013491480
H           -3.87582739268767        1.84303527963710        0.70717557912877
