42
 energy: -83.616912156452 gnorm: 0.000335734768 xtb: 6.5.1 (579679a)
C           -6.90580210628440       -0.92500124005080       -1.14878509538674
O           -5.82214171246781       -0.01101719681655       -1.18363599014851
C           -4.65236715769211       -0.46062031426838       -0.64968356406764
O           -4.58305885955091       -1.59589165479866       -0.18725599199886
C           -3.56068759813324        0.49597081029057       -0.67823444951081
N           -2.39819203398038       -0.00085864779580       -0.10833855696416
C           -1.34544769156509        0.72756768153544       -0.04129670403617
C           -0.07444022368506        0.23734494938886        0.62345751972423
C            0.02695878882971       -1.29118467145220        0.50040010652442
C           -0.12694641835648        0.64998439720453        2.10195453405936
N            1.05551212090480        0.92266871438746       -0.03651173351158
C            2.36555514085454        0.53578936495465        0.44757593633096
O            2.95837483527956        1.48565645052090        1.32738361511225
C            3.58949003802109        0.92382236996208        2.45864290671889
C            3.10685004999990       -0.30035234961262       -0.34619010609520
N            2.60475810197901       -1.07734460554008       -1.33849091854461
N            3.65769105337564       -1.85872781678976       -1.77635817634696
C            4.69267974836856       -1.55942213546308       -1.07796326732987
C            6.05689780273351       -2.14412518451654       -1.18277517231111
O            4.44968024144200       -0.58019455720360       -0.13941901670598
N           -1.32733467179385        2.02132996519630       -0.51872989670182
C           -2.39007432669568        2.63260243134857       -1.11716295851317
O           -2.28531358727444        3.78985515896457       -1.53036674412385
C           -3.65157806710442        1.80498538920524       -1.21829555883805
O           -4.65735776166995        2.31628270466509       -1.75377389858743
H           -7.14035273608105       -1.21261440636041       -0.11866986606459
H           -6.67306932151594       -1.82975177487212       -1.72005625902807
H           -7.76440428268836       -0.42246859971783       -1.59270272489813
H            0.20423057936160       -1.57263865233443       -0.53870929008426
H            0.85516739137948       -1.65819432501709        1.10558574214981
H           -0.89910268080334       -1.75270646857993        0.84389660329533
H            0.75090370797842        0.27535688497988        2.62663617898109
H           -0.14880109143834        1.73655899989859        2.18534936834339
H           -1.01858783952670        0.23862402731846        2.57444547909445
H            1.01656281066767        0.66721440262663       -1.02789464628590
H            2.94372602392126        0.19105628971077        2.96361435246385
H            4.53018277053694        0.42381680056667        2.18833783244348
H            3.81185191634665        1.73786843513119        3.15373825819542
H            6.79574485707479       -1.36937809053830       -1.39405439748154
H            6.34252180646002       -2.63353459241835       -0.25006796820302
H            6.07221549053444       -2.87805491287378       -1.98628607103108
H           -0.46249410775187        2.54169096916529       -0.43930741064164
