42
 energy: -82.950688042405 gnorm: 0.000919159954 xtb: 6.5.1 (579679a)
C            5.98704534461133        2.87399378409132        0.48051774740726
O            4.99082461869289        2.23067813157244       -0.31288191568945
C            4.03396399955638        1.57829592820455        0.35749256576052
O            4.00138770771041        1.54312142868210        1.57302263082695
C            3.04429363921893        0.89694167987995       -0.50589518230252
N            2.11974107295819        0.19509465648289        0.19621123402899
C            1.20644557282165       -0.50273210891614       -0.40604793086890
C            0.22669789760048       -1.30349929105360        0.42805724223646
C            0.37260052664843       -2.80410930879908        0.15204548739498
C            0.46111715236809       -1.01279815518265        1.91075199255628
N           -1.16221428026517       -0.86462767577147        0.13618618284042
C           -1.85144156958958       -1.18330627462128       -0.94982972078425
O           -1.45710459466156       -1.76019735956289       -1.94111165861151
C           -3.36269089853564       -0.73874419886980       -0.90691496844656
C           -4.21834432781515       -2.00053394840543       -1.03537161767691
N           -3.57625130856078        0.19163431243650       -1.96529139924077
N           -3.96139605724339        1.31731137619464       -1.45857144141224
C           -4.02810383227504        1.18351425393515       -0.13287385330466
C           -4.42930085502166        2.22585053519784        0.82172473748231
O           -3.67579121285815       -0.01864102677707        0.26711553536508
N            1.13535637971162       -0.57016485598449       -1.76323445572681
C            1.96713045807334        0.12770782443487       -2.61477054628095
O            1.81402327685140        0.04925432562965       -3.82130227895750
C            3.04495586925649        0.95135322411663       -1.94005991585491
O            3.83278965315309        1.59419533282960       -2.63674621148251
H            6.51592195907000        2.13882847372769        1.09249245548364
H            6.67813889289357        3.35453588827075       -0.20972351803025
H            5.52830134240071        3.61942514069979        1.13492675113397
H            0.25936066100056       -3.02753751978009       -0.90634558819971
H           -0.38418678399375       -3.35060472447766        0.71081909567468
H            1.35945682313620       -3.13079727771023        0.47665655146044
H            1.47353354982050       -1.30620342421216        2.18406523176715
H            0.34237839656295        0.05103793033995        2.11050876706436
H           -0.24825044671535       -1.57402905586498        2.51480716405155
H           -1.65595060150175       -0.44407158063007        0.90690074763460
H           -4.05831400737041       -2.62982950981203       -0.16376817759130
H           -5.26625319183134       -1.71714768568929       -1.09450222817293
H           -3.92140219007321       -2.53233778639962       -1.93690096923528
H           -5.25827439964483        2.80277097211965        0.41368195413336
H           -4.70479521644220        1.77840842559428        1.77349692076558
H           -3.59468638440409        2.91164123269613        0.98476996287435
H            0.41929036468690       -1.14368108861514       -2.19497638007695
