42
 energy: -82.983803984051 gnorm: 0.000742265934 xtb: 6.5.1 (579679a)
C           -6.93462891255749        0.72845219658608       -1.19811463604758
O           -5.69697216260705        1.08555562367437       -0.59862026509329
C           -4.77532561890199        0.09561223826548       -0.50881914688437
O           -5.02056223981140       -1.02685203202745       -0.93510804383251
C           -3.52208293587108        0.48564954911714        0.12195194195851
N           -2.60749605496734       -0.55124823550027        0.17451999573647
C           -1.46194441720497       -0.37821424287025        0.71357265141305
C           -0.47026119652219       -1.51779703845640        0.80824952274148
C           -0.46208377695392       -2.08732901822662        2.22932230494691
C           -0.80600199839935       -2.60156892611344       -0.21816437116227
N            0.88499366156899       -0.99252853205993        0.54786880727875
C            1.19196195863700       -0.30274001310862       -0.55512649188066
O            0.44627918533317       -0.00448379625130       -1.46503742997375
C            2.63377153298225        0.13214523832525       -0.57370388121486
N            3.22558740637324        0.84902895066608       -1.48051899495068
N            4.49384524977517        0.97743686639773       -1.04674893435263
C            5.45554837245532        1.73216977921419       -1.82200026517153
C            4.64644657899435        0.34946844683134        0.09902748871271
C            5.84826000648330        0.22224505473259        0.93790379895724
O            3.48788277625574       -0.19206557553594        0.41898855613780
N           -1.08617339739273        0.82511821395224        1.27692644180926
C           -1.87750311666144        1.94616183919147        1.26787530387017
O           -1.45970842618669        2.99010677686818        1.76180895391551
C           -3.24238246085148        1.78057482890287        0.63342050255770
O           -4.00452430755053        2.76332785386997        0.60630185536521
H           -7.54970243884004        1.62713947398661       -1.22092991653654
H           -7.43667580213244       -0.04917621835173       -0.61418367547741
H           -6.78055664652178        0.35885551252669       -2.21671588018779
H           -1.45197081822524       -2.46975380080147        2.47531261053551
H           -0.19566245407975       -1.31060889423197        2.94384095173681
H            0.25881668460820       -2.89880379967529        2.30557223107925
H           -1.80198288137445       -2.99095842792348       -0.00975934968397
H           -0.08014628759634       -3.40890607917074       -0.15674283011166
H           -0.79617700808859       -2.18372487874648       -1.22405401707151
H            1.61124567293811       -1.21683606348740        1.20238146656956
H            6.42683445786116        1.25259323433190       -1.73320557309065
H            5.12247563405051        1.74163918903703       -2.85720758451379
H            5.50658131194910        2.74840814178006       -1.43209606389610
H            5.63218633809661       -0.42370745641271        1.78620577827282
H            6.66896753137455       -0.19445507871236        0.35301418683149
H            6.15861892695185        1.20517956441272        1.29574694691155
H           -0.17977992734203        0.90488853502976        1.70166105380389
