42
 energy: -83.614838956444 gnorm: 0.000882633985 xtb: 6.5.1 (579679a)
C           -3.27274517456958        2.58447316591096        2.79112165744519
O           -3.36645198988179        1.61279599726228        1.77436174711014
C           -2.13163833235829        1.14005561962283        1.28818332627663
O           -1.09133422265460        1.61693442175182        1.79748996858182
C           -2.20527627368657        0.14979265390605        0.29912738491082
N           -0.96766021558896       -0.20638837546644       -0.19552885931558
C           -0.81129104852978       -1.12593463538767       -1.07440580722202
C            0.56925061331154       -1.43311891819197       -1.62912053414335
C            0.60150083738778       -1.22238780925117       -3.15120854673787
C            1.00789909810037       -2.86404709423380       -1.27697414874300
N            1.46443222483695       -0.47799109623945       -0.97681389796067
C            2.78164511585165       -0.38832236411030       -1.17580689317795
O            3.44175269402034       -1.06783183588412       -1.95729162028882
C            3.38787949490554        0.66990916223802       -0.32298898071984
N            2.75940822857742        1.44440152998566        0.51068767771852
N            3.69683480638320        2.25953681432861        1.07621973762224
C            4.83526941958365        1.93177259480924        0.55315205387001
C            6.16146037362915        2.52381124244131        0.83760334175760
O            4.71291111315040        0.93541796083378       -0.33908869295740
N           -1.88186150755876       -1.90888419418778       -1.54418741362615
C           -3.13453173668010       -1.77471000680729       -1.00165597167208
O           -3.93616405520258       -2.70875935262150       -1.12978665475047
C           -3.48544066953723       -0.35018456405642       -0.44418883713838
C           -4.65876242031340       -0.57485152729582        0.57428812606057
O           -3.83545025080984        0.40626501878145       -1.49650444714651
H           -4.28928824802196        2.86767626142493        3.07129606875448
H           -2.75503812446067        2.19294458948943        3.67698304365041
H           -2.73463742799478        3.47870347192015        2.44817951843732
H           -0.12764927177728       -1.87808466090799       -3.62409876688782
H            1.58808588448109       -1.45419125641654       -3.54849493321412
H            0.35676355140885       -0.18756501213502       -3.39113415266049
H            2.01374661390169       -3.05474929449301       -1.64713918638601
H            0.33057589181643       -3.58256314246182       -1.73440706294112
H            0.99497647713158       -3.00318230276641       -0.19653018937716
H            1.00838600660499        0.12088286424728       -0.27911725356444
H            6.06576850716766        3.27667053189383        1.61600407948399
H            6.56825496378250        2.98307724863189       -0.06263754460026
H            6.85524438501562        1.74959321792366        1.16316076300599
H           -1.67051644561059       -2.79707345831316       -1.96633085179548
H           -4.29947394659931       -1.00453584222235        1.51030770823682
H           -5.15560888422197        0.37241491117574        0.77506236188841
H           -5.39122505500070       -1.25177253512614        0.13134168221049
