43
 energy: -83.131625825927 gnorm: 0.000335305809 xtb: 6.5.1 (579679a)
C            5.94599159921746       -3.02661476099350        0.49679000154980
C            5.33907634498832       -1.75429388507741        0.94222062764454
N            5.78908044610190       -0.92111147935589        1.82903086512224
N            4.89646128833486        0.10335650543440        1.89545793797416
C            3.95432535815355       -0.16512072932383        1.04637533555327
C            2.75234519820270        0.63728699530592        0.73784203314067
O            2.54892803454604        1.72571773362308        1.26275827428397
N            1.92934052562413        0.02816010712793       -0.13851466738505
C            0.74699787452497        0.62201172602061       -0.77275918685679
C            1.07970483640406        2.01058398704677       -1.33827413436177
C            0.33518954156005       -0.32234185668332       -1.90238575464824
C           -0.38807256406975        0.74257080576228        0.22951668665433
N           -1.54627530949850        0.24873309454498       -0.06807011838353
C           -2.57905483201139        0.38495506944142        0.82981339555862
C           -3.85017482845734       -0.20191057766997        0.51680169817178
O           -4.82949994627309       -0.27463228888128        1.19159110785163
O           -3.91019834364897       -0.86716075475403       -0.81351783743128
C           -5.03702648569497       -1.78933400212720       -0.92331732395957
C           -3.75913938359914        0.00722023959699       -1.97423492630176
C           -2.41350345624487        1.03267685862365        2.04401979790177
O           -3.34977078711352        1.18896380335798        2.95468981637766
C           -1.09015983880348        1.60693936868426        2.38163914487869
O           -0.82747656691352        2.19010543095189        3.41050357608459
N           -0.15908230193095        1.40780927617130        1.38905404516696
O            4.17947141251731       -1.33507308527242        0.40988666505071
H            5.24615903787974       -3.84618754655725        0.65820466952124
H            6.86391898520980       -3.21208796182525        1.05009029070505
H            6.16337402359700       -2.97756597075217       -0.57022822199992
H            2.20997608894313       -0.87135181033746       -0.49641690146011
H            0.20703333133583        2.40083481253137       -1.85851229869185
H            1.35737651063780        2.70213393433509       -0.54530968636902
H            1.90527069746809        1.92259782017543       -2.04241456800156
H            0.04913526141311       -1.29203485598514       -1.49899120331760
H            1.16227665704889       -0.44941429433279       -2.59824399407378
H           -0.51494735572290        0.09460414865659       -2.43798430671874
H           -4.88451355858889       -2.34786582183637       -1.84251086243012
H           -4.99168807149104       -2.44199758666514       -0.05489337300482
H           -5.96875459320400       -1.22511170153172       -0.94559672991949
H           -4.62583250296002        0.66284368984667       -2.04976751825557
H           -2.83888203770001        0.56590311783675       -1.82711960115408
H           -3.67755179768112       -0.64576121418294       -2.83931729686620
H           -4.20944173110335        0.79434048764457        2.71346171765135
H            0.78961223899435        1.77409217143291        1.54863082474652
