38
 energy: -79.621447370245 gnorm: 0.000352068984 xtb: 6.5.1 (579679a)
C            6.38200805565233        0.74897670882886       -1.58212873116336
O            5.27402788643581        0.96049755851788       -0.71942434349121
C            4.20344252021865        0.15044310215319       -0.92389615957951
O            4.22294276609136       -0.69273512498076       -1.81411950447959
C            3.08853904240623        0.37385953864446       -0.01703091210638
N            2.03112337408094       -0.48713722529503       -0.24907984754012
C            0.97215657355270       -0.43838850324234        0.47057243609688
C           -0.15733752427386       -1.42333046207888        0.21252514751030
C           -0.43442265093952       -2.27976118098088        1.45417274809057
C            0.22758597338603       -2.32585128149381       -0.96196052429827
N           -1.37982230111083       -0.70456996166638       -0.19683454071755
C           -2.23110493406808       -0.05866454869832        0.61756815111546
O           -2.07164242585428        0.15686093417842        1.80900443278551
C           -3.43242390745957        0.40259421116524       -0.13016603997787
N           -3.63155868944296        0.29033403195962       -1.40915669446454
N           -4.85425869453578        0.83614711526464       -1.66597409680490
C           -5.32299522296614        1.24426851744744       -0.52610628176712
C           -6.62464333148308        1.89823097585802       -0.26798241724645
O           -4.47034804693555        1.00290208465080        0.48052446758746
N            0.83517441505855        0.46601466034332        1.50100951006562
C            1.79406134703899        1.38443706717903        1.83677623237108
O            1.59642809168230        2.16591592582196        2.76529773586580
C            3.06071822180892        1.35477947436269        1.00831459943554
O            3.96427510790248        2.16892883481022        1.27510607872698
H            6.76180640629104       -0.27276503205173       -1.48214617367032
H            7.15519071511442        1.45903173103911       -1.29071263294508
H            6.09945347483326        0.91763501609427       -2.62609936893568
H           -1.28719309158201       -2.93077136634944        1.27007251964953
H            0.44010156554245       -2.89374064841279        1.66477639633539
H           -0.64569963906616       -1.66337658363497        2.32498452099584
H           -0.57464409625810       -3.03057105607288       -1.17104407391799
H            0.42282141099842       -1.72715156122534       -1.85095041187624
H            1.13235008550184       -2.87942595683349       -0.71491702410927
H           -1.67599215728985       -0.83472565633648       -1.15268460283916
H           -6.46845339512333        2.88699102115016        0.16321366093938
H           -7.20269534147174        1.30809203452969        0.44269465206488
H           -7.17774219472520        1.99019057097950       -1.19914809693815
H           -0.02122938901617        0.47583603436718        2.04001018922349
