42
 energy: -83.633780922297 gnorm: 0.000524295686 xtb: 6.5.1 (579679a)
C           -6.26337789709215       -0.19572229912429       -0.37890376443372
O           -4.96684453161715        0.33791766646209       -0.24272836483320
C           -3.93763424518549       -0.62661246757454       -0.12094440548087
O           -4.26569336201462       -1.83528345391609       -0.15664012909744
C           -2.65801743560846       -0.08943471950067        0.02537241138725
N           -1.60605707504652       -0.99095326533956        0.04928049154483
C           -0.38931190108145       -0.56491341961549        0.15831556540247
C            0.70804508162645       -1.62991220440792        0.11721195339608
C            0.55354822817477       -2.56960743083813        1.32389804220678
C            0.59773575706374       -2.42088459118437       -1.19484661075970
N            1.99476275414302       -0.93829634249264        0.17857560951664
C            3.18953649297211       -1.53428853056840        0.16808982543847
O            3.38414500143459       -2.75191526228571        0.10922113281127
C            4.32890852318563       -0.58727115295781        0.22461994481801
N            5.59994675777075       -0.88606906204499        0.25589801519979
N            6.28200701980486        0.29802601742170        0.29237254279891
C            5.39414307906504        1.24151141590530        0.28041446737925
C            5.63255482732922        2.70266091461873        0.30479247983914
O            4.14035315457424        0.75691240540240        0.23937915349718
N            0.03588691703822        0.72074624850393        0.38195677312275
C           -0.87432511945819        1.68090550913842        0.43665210048266
O           -0.62230099159989        2.85734748036561        0.78923466344824
C           -2.35400266613774        1.39295815653627        0.03366837889135
C           -2.56612294650575        2.02578009041317       -1.36503589943093
O           -3.17233005674865        2.10002611609275        0.98082563505434
H           -6.95809953023257        0.64267709684937       -0.46202735428037
H           -6.35171987514309       -0.82085575586447       -1.27813357784171
H           -6.54416041892424       -0.80623301353528        0.49034624159203
H            1.25955168934970       -3.39768875286703        1.27218294800147
H           -0.46182080833816       -2.96692130511754        1.33015512803207
H            0.72237033970604       -2.01914652067854        2.24932961719856
H            0.78447845766475       -1.76187884086341       -2.04257995042052
H           -0.41324496738846       -2.82099322954722       -1.27699620221039
H            1.31131679179945       -3.24341669630880       -1.22239303658704
H            1.91753703009577        0.07776859067166        0.26021849127241
H            5.16926906143618        3.17364825871437       -0.56184842857155
H            6.70195208661985        2.89566870423255        0.29376276384120
H            5.19556712232948        3.14009333759805        1.20255931874628
H           -2.24942617680514        3.06913846275614       -1.34936632650106
H           -3.61946614349927        1.98242276984105       -1.64055071738600
H           -1.97912505735603        1.48718787596649       -2.10889748393990
H           -2.65053596738334        2.87489919915723        1.25352955686195
