43
 energy: -83.130293624300 gnorm: 0.000633406844 xtb: 6.5.1 (579679a)
C           -6.13202368448067        0.72973420684708        1.05562967303294
O           -4.91672818461031        0.44472848651445        0.33803407188713
C           -3.79530313904771        0.94927980423359        0.79481241431472
O           -3.66278948570143        1.65012259737868        1.75926285029654
C           -2.61022468913490        0.52523558551891       -0.06795088122448
N           -1.57006897580708        0.07408699657120        0.54815965140039
C           -0.43837613204994       -0.20797401173670       -0.15534335435214
C            0.68455385338667       -0.89915269283943        0.57372381154550
C            0.71090150862790       -2.35325835692249        0.05911200367194
C            0.45825764880535       -0.86291024905706        2.08461543372243
N            1.98212594964083       -0.26404094997425        0.30916862834273
C            2.61210003901969       -0.16871472857224       -0.87472304211763
O            2.08231088072067       -0.37002777680871       -1.97536422210236
C            4.01080345682389        0.25197041407437       -0.76535041649699
N            4.86366781629753        0.46698591178224       -1.72064553559222
N            6.02683045319500        0.83381484455819       -1.13182485803014
C            5.82170247560565        0.82386011393114        0.15244823132292
C            6.77803296682938        1.14996009270158        1.22994400849607
O            4.56431888773278        0.46262635324176        0.44839032522798
N           -0.31239873844592        0.07904116911906       -1.42217094906891
C           -1.33007316651523        0.70185129507275       -2.19461289275137
O           -1.10124627310536        1.16844830699062       -3.26658922219317
C           -2.70280964797472        0.58307890600530       -1.55611905529013
C           -3.21593326050818       -0.82662980214195       -2.00159947002849
O           -3.56965405528801        1.58537885768803       -1.96074564974614
H           -6.22730013801345        0.02914540905526        1.88648986222097
H           -6.94534506198126        0.59000379907185        0.34699385482968
H           -6.11174769652150        1.75467474769554        1.42973942317537
H            1.49618989354194       -2.89382255442383        0.58378470935543
H           -0.24737850480295       -2.82954764648608        0.25651429814648
H            0.90945149810495       -2.37404120041966       -1.01050619029517
H            1.26588175774038       -1.39135357600081        2.58645116295363
H           -0.48606178263607       -1.34726994034642        2.32582302561335
H            0.42773037205267        0.16672256443638        2.43678049261237
H            2.54270049737844       -0.09769464338272        1.13309983984035
H            7.73153889995072        1.44901797821791        0.80074442198730
H            6.37966799004865        1.95687954891158        1.84486179407060
H            6.91999160243654        0.28048796716185        1.87199247413941
H            0.68040487474238       -0.10648894273630       -1.84730508011439
H           -2.56293027878933       -1.60941121278484       -1.62590187204077
H           -3.23819971953093       -0.85037437722566       -3.08885632293560
H           -4.22184545562405       -0.95762283190145       -1.61009886661263
H           -3.55072525211747        1.70320253696166       -2.92045658120716
