20
 energy: -37.574735331088 gnorm: 0.000862129493 xtb: 6.5.1 (579679a)
C            4.11855063574075        0.40207779678023       -0.05535490027387
O            2.75268193322925        0.15832990442336       -0.44722284576948
C            1.82346270462641        0.36635178575524        0.44063119454219
O            1.94099793825520        0.74272736644306        1.56696293102198
C            0.45169079701716        0.04401460171486       -0.16934284140626
N            0.22451132509225       -0.38856808758242       -1.45672147932500
N           -1.01829624373553       -0.54955415438765       -1.58129940307361
C           -1.68476725104948       -0.22998758709861       -0.37141176799189
C           -2.64557626375436        0.95402662726798       -0.56366756711250
C           -2.39678365426934       -1.46423142927729        0.20599559504166
O           -0.61910426326443        0.15113957810400        0.49126954160438
H            4.33732652788453       -0.14988208408793        0.85961559577343
H            4.25667898673087        1.47069436583005        0.11487916029538
H            4.73446937225765        0.05595656801497       -0.88162692868468
H           -3.07791742048448        1.21036226972291        0.40061866258792
H           -3.42630380534294        0.65658036831151       -1.25922132541517
H           -2.09257925834986        1.80183241670094       -0.96176068328186
H           -3.17444490043289       -1.77158888930986       -0.48863444265357
H           -2.83291588691250       -1.19572019169935        1.16528072942566
H           -1.67168327323842       -2.26456122562616        0.33649177469554
