13
 energy: -19.065296067598 gnorm: 0.000413198648 xtb: 6.5.1 (579679a)
C            1.99989843518356       -0.23416629335984        0.36826179113702
O            0.59412590761778       -0.58927300159722        0.21026502596533
B           -0.50167791423363        0.35269830747367       -0.07272128588366
C           -1.92012646188190       -0.25906272151935       -0.19294089604575
O           -0.05697925520671        1.59678644901655       -0.20001829260469
H            2.09567348611593        0.80247227295173        0.05406237988558
H            2.27193319578269       -0.34951682725622        1.41667868821783
H            2.58963388702599       -0.89036725834477       -0.26896870780812
H            0.40680564042537       -1.52506037840084        0.36111544937727
H           -2.13774258382585       -0.48058068628587       -1.23883282537012
H           -2.01551991037736       -1.18788112764353        0.36424873833803
H           -2.68157271178581        0.43692223314275        0.15371843736290
H           -0.64445071484007        2.32703003182296       -0.39390650257160
