43
 energy: -83.187753315002 gnorm: 0.000514492121 xtb: 6.5.1 (579679a)
C            3.55852436999266        4.21362267191566       -0.33028056452696
O            3.63923028547555        2.84688157575092        0.09004556592846
C            2.53018694368942        2.12672874443814       -0.02601169354187
O            1.48712735398136        2.56708232304101       -0.45532333816693
C            2.68737009598961        0.70990036951176        0.41799720402016
N            1.53449077800063       -0.02558566905921        0.27315203691810
C            1.50768904172147       -1.27300931177699        0.59106699999773
C            0.23264525974213       -2.06114731659756        0.37249366956532
C           -0.19497835008755       -2.80894557511821        1.63959256875872
C            0.42289590527265       -3.01814647316102       -0.81283961005190
N           -0.78437309082650       -1.05940196765125        0.03264642185246
C           -2.04239536918060       -1.35119207822125       -0.27465783706341
O           -2.56786980220712       -2.44711708170081       -0.32256607437200
C           -2.85144916314807       -0.11801177984138       -0.58153857461240
O           -2.38015180751770        1.11475470271119       -0.48064449438506
C           -3.39007451459478        1.93090512017416       -0.82904668915195
C           -3.21970544557004        3.39328313181465       -0.82769362606509
N           -4.45359789790820        1.24710823002074       -1.13949421945994
N           -4.09969628113812       -0.04088044895871       -0.98074286622561
C           -5.07335663618254       -1.08209975438659       -1.23324684562349
N            2.60069532078807       -1.92257428322286        1.08212800776802
C            3.80808827474303       -1.29205334131638        1.28632695456157
O            4.78374202452072       -1.86866802335459        1.73692463608417
C            3.81952024483350        0.12278063292147        0.91091286383026
O            4.98322249377876        0.75267775738529        1.08520604347887
H            3.29953203272817        4.26270961833997       -1.39043681972316
H            2.79773602592733        4.73867291638163        0.25151506938659
H            4.53976510037241        4.65123830284597       -0.15744348974476
H           -1.14176228136852       -3.31625915151394        1.46414138021796
H           -0.31042798486191       -2.11023542348213        2.46640341500421
H            0.55435998476224       -3.55340680916541        1.89957614095021
H            0.64863194684485       -2.44990807186807       -1.71384543092954
H           -0.48465441232866       -3.59745984976331       -0.97104247188587
H            1.24610620781567       -3.69787185539777       -0.60257640324899
H           -0.45155886900298       -0.09792702709010        0.00308917644788
H           -2.45455144392062        3.67459532968507       -1.55303302678048
H           -2.88433029213556        3.72304014820930        0.15610405635468
H           -4.16176294130472        3.87387181565739       -1.08100288874156
H           -5.67517898276771       -1.21749267477959       -0.33473196487992
H           -5.70421161408512       -0.76020215333743       -2.05854239258816
H           -4.54885285262767       -2.00421263794271       -1.47181441275500
H            2.55696235936104       -2.89995753607060        1.32890320291441
H            5.63642098243015        0.12391390398199        1.44543032048418
