43
 energy: -83.116538280417 gnorm: 0.000813495950 xtb: 6.5.1 (579679a)
C           -6.10939088200189       -2.07621972762476       -0.75293022718793
O           -4.93441722398277       -1.28736991560779       -0.52976417037091
C           -4.92960141393427       -0.06657633313620       -1.05871843783704
O           -5.84570677347756        0.38820812823687       -1.69979704047579
C           -3.65699026577565        0.66361465929718       -0.76122115684204
N           -2.72449260648963       -0.02042568316070       -0.02866982534659
C           -1.59604800011608        0.53203858572792        0.26354148895658
C           -0.58835795822538       -0.21861140719486        1.10314553309460
C           -0.57193236880215        0.39134951318765        2.51353955503983
C           -0.93137488604928       -1.71033486335090        1.14186656420013
N            0.73022104849294       -0.03822509287641        0.47257039450258
C            1.86354166912729       -0.52278307765556        1.00721208299556
O            1.99333350899635       -1.12254582981462        2.04754756476554
C            3.04035722171412       -0.22513710979004        0.10832497413480
N            2.96690323540273        0.46688485763509       -1.07494801646777
N            4.12934380166795        0.51513844687270       -1.56455957085394
C            5.04979019888328       -0.15999392096884       -0.70958617133181
C            5.67270493487847       -1.36642452200504       -1.42485330532027
C            6.10755425429658        0.81186515596703       -0.16975080408909
O            4.22591694014288       -0.61120315395464        0.36223772114558
N           -1.28380716649882        1.80536396903069       -0.11553826362928
C           -2.13722769282443        2.59530646760147       -0.85627244387441
O           -1.85550497858869        3.72963264463601       -1.19817901783215
C           -3.40661085654119        1.94488688735844       -1.18916208579617
O           -4.25905827160464        2.66805089054500       -1.90638088381087
H           -6.28367642644300       -2.19304155423169       -1.82515907060041
H           -5.92456681058107       -3.04342058629140       -0.29068434856793
H           -6.97561290844258       -1.59376799005403       -0.29402408738111
H           -1.58023974971311        0.36780316484490        2.92362586158092
H            0.09007720294367       -0.17784026867383        3.16242243526836
H           -0.22803166079976        1.42211724093439        2.46704580818176
H           -1.93379102020906       -1.83176294967206        1.54927775163591
H           -0.21903819746260       -2.24180815408483        1.76906827268585
H           -0.90458467834757       -2.12196693453131        0.13461582172803
H            0.77638602735966        0.40354570233714       -0.43188972779562
H            6.25830774225041       -1.00952449731801       -2.26843512371035
H            4.87957048868776       -2.02398702372246       -1.77383241147753
H            6.31159912438741       -1.89718055918289       -0.72287821878265
H            5.60994879685580        1.63426791702557        0.33938751139757
H            6.74827432641800        0.27776661623289        0.52800504029741
H            6.69400520481999        1.18979813238119       -1.00337898119865
H           -0.40008553059211        2.21350375604915        0.14235352683671
H           -3.86769139981419        3.53900941908059       -2.10185351782103
