43
 energy: -83.125729622655 gnorm: 0.000794621006 xtb: 6.5.1 (579679a)
C           -5.36971535553799        0.70246886567333        1.99349381735416
O           -4.07747395189649        0.51127008814246        1.38721647861317
C           -4.05333105735163        0.22212022533888        0.11412117418460
O           -5.01171076269232        0.08863241833960       -0.60544181900060
C           -2.64108590559167        0.05926493155697       -0.41862831611557
N           -1.69729688743016       -0.20612054985306        0.42254666332374
C           -0.41386693737394       -0.30811177963596       -0.00510588394414
C            0.60159799138033       -0.69807252002637        1.01117880126480
C            0.47176663914017       -2.24187503697909        1.04467758829126
C            0.29511023065126       -0.09674811138654        2.38926685460974
N            1.92322963028082       -0.29590835470389        0.55688002992982
C            3.05743630940513       -0.69870942256242        1.21505702817220
O            3.09677373487626       -1.56142986054211        2.06665059857275
C            4.25528660653135        0.02403446253327        0.74545681509940
N            5.48275313057053       -0.12911718970303        1.13515922057704
N            6.23065519721965        0.76697118793408        0.44025794664362
C            5.41632262565560        1.41810998750308       -0.33293314589412
C            5.73941975231180        2.49703556527152       -1.28994262367468
O            4.14938819891452        0.99592017441707       -0.18763190949335
N           -0.09232225907212       -0.13467209063398       -1.27145313965783
C           -1.00775619447016        0.26230122968230       -2.30054349699138
O           -0.58948109652518        0.62550024274412       -3.35137075577996
C           -2.45198713073417        0.03902303174059       -1.90553309630331
C           -2.72877788858839       -1.45534946184843       -2.29920490487705
O           -3.26513400635253        0.89535149352304       -2.62074728081919
H           -5.97787621583182       -0.19122285532757        1.84512368795157
H           -5.18577473131649        0.87919224069027        3.05037166956246
H           -5.86025265317004        1.56258064582440        1.53452712995503
H            0.80513266207471       -2.65934532216947        0.09761672374009
H           -0.56609942280663       -2.51730452741711        1.22115123557328
H            1.08767240652422       -2.62915188604214        1.85396905413520
H            0.39039291649832        0.98618548359577        2.34855029745285
H            1.00238614380060       -0.49495100963997        3.11470235400606
H           -0.71779154372029       -0.35901247193162        2.68739648368777
H            1.98600091442105        0.58244182546655        0.06788901274075
H            5.53135188536923        2.16251727626240       -2.30671387870815
H            5.11594296322792        3.36797516339398       -1.08949946053427
H            6.79020942909869        2.76508011133714       -1.20225648964394
H            0.88252286097722       -0.13822804012326       -1.54953115998501
H           -3.76448040544060       -1.68434519987476       -2.05917950258578
H           -2.57192414526235       -1.54244031476182       -3.37286672258743
H           -2.06307810451857       -2.12853775478656       -1.76662217187292
H           -4.20413357323923        0.75667710897125       -2.40805490698649
