46
 energy: -86.366662860535 gnorm: 0.000965156363 xtb: 6.5.1 (579679a)
C           -5.95802107579401       -1.64015129084125       -1.55499807362206
O           -4.74985641493321       -1.09013188496226       -1.01357299811388
C           -4.65195526640031       -1.06091103031492        0.30619136654406
O           -5.52516315215855       -1.46860385530441        1.05174270521042
C           -3.38151134555495       -0.48586598912191        0.80592086964457
N           -2.46286356390036       -0.07407849012625       -0.11749416094526
C           -1.33293373443552        0.43001430612813        0.25601818037193
C           -0.42169654441258        0.88430960575440       -0.87592542102841
C           -0.50061396367746        2.41068134668476       -1.01467141326061
C           -0.86122634411705        0.21626540217015       -2.18606439669833
N            0.95357480217044        0.42816735589397       -0.59298255463204
C            2.01167064029361        0.79425470651753       -1.32121745463877
O            2.05957601587256        1.60569637452125       -2.22236093434727
C            3.26395233920500        0.07592624343239       -0.89890100090312
O            3.31158922108105       -0.81712539273575        0.07808062013609
C            4.58438929746619       -1.24977986137689        0.12520571532892
C            5.00549474527503       -2.25970858059470        1.10981770179859
N            5.30959824714596       -0.65856984004037       -0.78028378038351
N            4.46596995498700        0.17045690816059       -1.41791619183118
C            4.95616283586574        1.00844544339339       -2.49324977439672
N           -1.01549942771341        0.59933733984686        1.57832886646175
C            0.24334656515333        1.16443934955638        2.06761078499919
C           -1.86367597203691        0.18091839239591        2.60914819625645
O           -1.52953066532900        0.30445050086686        3.77571023518596
C           -3.13150522606096       -0.38445329783592        2.15110239606183
O           -3.97603868726745       -0.77767010317828        3.10324362329480
H           -6.81642750042548       -1.05184531320838       -1.22291624878814
H           -5.85988322553650       -1.59480065840736       -2.63747540917420
H           -6.07578262904911       -2.67448458807368       -1.22456188822179
H            0.01013702194410        2.73671209857752       -1.91755278043034
H           -0.05597675654105        2.91255243673224       -0.15961197063998
H           -1.54983533557171        2.69533287211397       -1.08318289646106
H           -0.83496842197388       -0.86641627242078       -2.07829299644095
H           -0.19022622618544        0.51474386238831       -2.98887532014637
H           -1.87626501743406        0.52346770726114       -2.43135968642577
H            1.06227860994025       -0.35497873306181        0.03109341657576
H            4.93041223156314       -1.84297088340960        2.11553244270936
H            4.34255601303364       -3.12368308962036        1.05755616976974
H            6.03227724530554       -2.56052297263459        0.91414580294078
H            4.15489562724679        1.15836284185578       -3.21370395298037
H            5.80984684185280        0.51021407535863       -2.94614465894470
H            5.25947478023041        1.96756762578512       -2.07316154840079
H            0.72738538402268        1.75272728578371        1.29968238244889
H            0.01987180410222        1.79487963761262        2.92887157842432
H            0.89873070748641        0.35273009371635        2.38127521040285
H           -4.79173543474425       -1.15589768526763        2.69882924728823
