43
 energy: -83.121993287968 gnorm: 0.000177501335 xtb: 6.5.1 (579679a)
C           -4.88581398590485       -2.11060274478215       -2.71468983650666
O           -3.81962949057386       -1.32676112049774       -2.14720744069674
C           -4.10251549660645       -0.60457615800927       -1.09697199183726
O           -5.17869966863529       -0.51921785459050       -0.55945986454357
C           -2.89288043908665        0.14027892370187       -0.55936384747403
C           -3.11624728666653        1.16393668883145        0.51572556013227
O           -4.26445038236283        1.91988933224340        0.37874812022384
C           -1.92378357383244        2.08477180628664        0.66654521564808
C           -3.14718723874808        0.33373732896107        1.84517961720589
O           -1.90206244924550        3.18335845509259        1.11816079729494
N           -0.69564151022242        1.44430308106728        0.29612339751475
C           -0.61218850554523        0.36145563216554       -0.44923026878120
C            0.70428000522159       -0.15329683649012       -0.91263577076585
C            0.89822682752097        0.52337193718626       -2.29239527845878
C            0.69377821142024       -1.68186540497144       -1.05201184095345
N            1.73205345205249        0.27053312400999        0.02596709631516
C            3.06340401284693        0.04294642481776       -0.22714519377580
O            3.52575000150655       -0.24814215215239       -1.30744178062490
C            3.85655973670162        0.21983828202067        1.00513766220510
N            3.37970449333317        0.45402624273355        2.19290372873449
N            4.44014307569475        0.49553334833652        3.03930488776292
C            5.50166831266437        0.27858073693420        2.31714876109602
C            6.90704804318009        0.22120307935137        2.77340596043042
O            5.19465125567386        0.09725254804568        1.02588737682346
N           -1.72097524400312       -0.25607170213469       -0.92938985122801
H           -5.74187348855045       -1.46746155978151       -2.92494062791890
H           -4.48899515358457       -2.54601992400344       -3.62853199346631
H           -5.17494440379446       -2.88875442954041       -2.00649384519434
H           -5.05374230300674        1.35534989372187        0.30815589524859
H           -3.99583208495773       -0.34519894190277        1.80282127535049
H           -3.27819744245068        1.03520590373506        2.66711288349230
H           -2.22646307540258       -0.22777912510436        1.97308143935690
H            0.14851107070203        1.95874079870027        0.52476789178247
H            0.02937311317408        0.33147346844582       -2.91915321789287
H            1.78282288207242        0.10409827324799       -2.76724506330110
H            1.02580277107701        1.59568368697653       -2.16143057528490
H            0.55568884173205       -2.14041047665834       -0.07502442841775
H            1.64435430309465       -2.00539668144437       -1.47227662726555
H           -0.11735479481320       -1.98582471087918       -1.71035657592844
H            1.47533056839263        0.27429303867571        1.00299021028720
H            7.49020024737590        0.99832496922401        2.27889390274758
H            6.94798657392460        0.36290125379101        3.85075691892749
H            7.34213921863739       -0.74370743536094        2.51287732170968
