42
 energy: -82.939512318202 gnorm: 0.000491316495 xtb: 6.5.1 (579679a)
C           -6.64881679561982        1.99951298160420       -0.61524287209561
O           -5.59013584667224        1.06212731678387       -0.81465505895990
C           -4.57255556169695        1.12662157986643        0.04499108000774
O           -4.52651482918689        1.93569009252548        0.94972375094132
C           -3.50699709431136        0.12109359209580       -0.20228794399190
N           -2.48783275531574        0.19744146168741        0.67743060465579
C           -1.47494884106249       -0.62023456334660        0.61160846044555
C           -0.36717523453783       -0.50165240378300        1.64451630925437
C           -0.13813154089083       -1.82906868260373        2.37495842234825
C           -0.71985037336586        0.59649841291804        2.64847775277801
N            0.85876257209939       -0.06812891162428        0.95215205253031
C            1.63353835967460       -0.84283680169959        0.16785278558686
O            1.42389650172060       -2.00758482761588       -0.13030499806407
C            2.81297259189419       -0.09061369076610       -0.32723453153461
N            3.03402986879397        1.21582906691100       -0.09727276812374
N            4.13439564371484        1.55072977497333       -0.66434413707500
C            4.69683749950153        0.39568060959129       -1.31865368307623
C            6.05370817656258        0.04181607041033       -0.70460896540096
C            4.78253045924959        0.62741570667791       -2.82984729934780
O            3.75644882939741       -0.64405144605047       -1.04520537848564
N           -1.38119513157548       -1.56589741826031       -0.35313127340774
C           -2.32694173862174       -1.75841448347375       -1.34450790083983
O           -2.16595496401466       -2.61952760006164       -2.18691737302690
C           -3.53177711431500       -0.84004431197413       -1.27573594214164
O           -4.42351147827727       -0.95418732910103       -2.11365223885757
H           -7.09346785951026        1.86110088815616        0.37368681418817
H           -7.38768866559522        1.80743801408096       -1.39106367200132
H           -6.26923670621689        3.02113891361308       -0.69761968067542
H           -1.02296670307725       -2.06732215283640        2.96327044988996
H            0.71633640501499       -1.73109712924116        3.04191526735792
H            0.05049284158869       -2.64355417875277        1.67972122790277
H           -0.86494373738492        1.54644583657064        2.13618431232517
H           -1.64329678966900        0.33598978996327        3.16323048189625
H            0.07962173600820        0.69867375012714        3.37908137878016
H            1.15084682608985        0.88590730000222        1.10412401092188
H            6.43039430902559       -0.86719067587416       -1.16743774799233
H            5.93490190530869       -0.11571988129829        0.36505616909280
H            6.74810502822294        0.85962348784196       -0.87909769824064
H            3.79255909411065        0.86181904085676       -3.21565174728400
H            5.45750260880546        1.45663737651883       -3.02518024411064
H            5.15710323239508       -0.27398632632539       -3.30892318302275
H           -0.56104372826297       -2.16411424909434       -0.38548699315257
