42
 energy: -83.592005061278 gnorm: 0.000159469172 xtb: 6.5.1 (579679a)
C           -3.20899711274684        3.69687469063959       -0.37388743827083
O           -2.67113702777470        2.49064519536461       -0.87784655862629
C           -2.42540184875515        1.51454201685929        0.06894984061255
O           -2.67750722530230        1.75908655344483        1.25877958513568
C           -1.90819245474453        0.28877214502518       -0.43971474850526
C           -1.56810827756442        0.03463030929176       -1.78551823253514
O           -1.69058839549590        0.83820666331043       -2.74067571670449
C           -0.92643794703786       -1.31168581195779       -2.06264738296183
O           -0.76380556209751       -1.77170216090985       -3.21401025345740
N           -0.44991059793840       -1.97504612410734       -0.98840775973176
C           -0.78496582056741       -1.76498273887634        0.35366328729556
C            0.39809962434484       -1.81774102776430        1.31797075088700
C            0.00895960416345       -1.21603361253444        2.67349461984874
C            0.86418025366316       -3.26482535049493        1.53590703152266
N            1.51426489917436       -0.99533230037314        0.80781495294021
C            2.24257688760906       -1.27777372173611       -0.31783548871979
O            2.40306068330630       -2.42777123025838       -0.78903638677992
C            2.89875006354012       -0.12137763773659       -0.89066398969170
N            3.69656746504185       -0.09250422366804       -1.94568019929954
N            4.13042914018391        1.20093747504245       -2.07380327256639
C            3.59501450233848        1.88052567615913       -1.11473945797713
C            3.78835332949726        3.32159088545566       -0.82186663546686
O            2.79772081419345        1.12675886495469       -0.32291263769751
N           -1.74675086197632       -0.73076645732377        0.58170909376646
C           -3.04357490673253       -1.29164227568326        1.01465393555414
H           -3.35903591044056        4.36615779107576       -1.22204166212951
H           -4.16937746087332        3.52499127596232        0.12600586925011
H           -2.52710112797575        4.16761333763698        0.34401375406178
H            0.09625337861757       -2.80635128902906       -1.18551255475606
H           -0.78040452015123       -1.81045225608111        3.13117170165089
H           -0.35582584361370       -0.19520164672010        2.54924396769790
H            0.87007670561809       -1.20673734085753        3.34112043873467
H            1.76054729769318       -3.28852107944576        2.15591843189188
H            1.07937291453022       -3.76278435605359        0.59255359376291
H            0.07126185537208       -3.81491334727757        2.04153018671367
H            1.42527315967727       -0.01195991852634        1.02794462565172
H            4.53345535452951        3.73038183708337       -1.49987682938020
H            2.85428620707410        3.87107832614848       -0.94223687461424
H            4.12618985591979        3.45312959639615        0.20543558823045
H           -3.63662509959983       -0.51502312019022        1.50045006553031
H           -2.85046821206790       -2.09210400981462        1.72881274221957
H           -3.61047878264307       -1.70269060240795        0.16828501690953
