47
 energy: -80.187020314404 gnorm: 0.000309128122 xtb: 6.5.1 (579679a)
C           -5.83085399065181        1.64259881520987        0.34072816666301
C           -5.74748101588025        0.09941585113478        0.52801480563426
C           -4.78954578732117       -0.52558592724244       -0.46370129693989
C           -3.59294981192974       -1.07990702309961       -0.09975470146919
C           -2.67371072974837       -1.62739503052949       -1.17916002251790
N           -1.46140668022507       -0.82077169610478       -1.30034934580146
C           -0.29304306472331       -1.20086766151512       -0.73770967180113
O           -0.14584568668346       -2.30269228203044       -0.20062467632690
C            0.82841216348397       -0.22592649776162       -0.81873771970868
N            1.92321879842445       -0.57772275292877       -0.07170001774612
C            2.98752284856407        0.15238921771214       -0.01561561474749
C            4.12963309342623       -0.39933439226799        0.83185735432559
C            5.12477804785707       -1.12599133581489       -0.08559659524735
C            3.55989737613649       -1.40207144097493        1.85034822001843
N            4.82461825500984        0.67391751456151        1.53897486098870
N            3.10613533152269        1.32780186781490       -0.72881004086562
C            4.28903030143287        2.18304728653501       -0.69074678458194
C            2.04951087510563        1.78027598603619       -1.52058939366530
O            2.12007988807507        2.83657906043352       -2.16751835596193
C            0.88505471445726        0.94700234913008       -1.54379231531138
O           -0.12959313677348        1.39783937005537       -2.33645588669107
C           -3.19204287129926       -1.20399333113423        1.24592791427115
C           -4.10090576359204       -0.79542610232727        2.25113479087588
C           -5.28507429052415       -0.24450724211782        1.91042106084336
F           -6.18099994246688        0.09698208369937        2.90306466512744
H           -6.54668967028320        2.06821970527145        1.04473049941905
H           -6.15138076956792        1.87697779828174       -0.67406400528196
H           -4.85379949189027        2.09403705684527        0.51361088301321
H           -6.77244426478298       -0.28412579575478        0.36719008944601
H           -5.08577100840162       -0.47638856010548       -1.50679699143489
H           -2.37029292390673       -2.65471989386995       -0.94461825624513
H           -3.17898764124188       -1.62958501865104       -2.15158562633845
H           -1.57741259478878        0.11294549834466       -1.65741316505433
H            5.90273130377646       -1.59490254202046        0.51518853584333
H            4.60827686525484       -1.89764803782081       -0.65609729711075
H            5.59686214274793       -0.43374156087386       -0.78045868041886
H            4.36576954183972       -1.77478532220551        2.47975572477006
H            2.81635728760626       -0.91450632360955        2.47982979495554
H            3.08955813434958       -2.24108530451832        1.33760112749528
H            5.68936423879244        0.31671527055739        1.91800371024573
H            4.26164078409549        0.99129620997644        2.31770637232591
H            4.31379900349153        2.74729791031514        0.24152206534838
H            4.23667784429837        2.87453770350511       -1.53235602044015
H            5.19371334300109        1.58678545286497       -0.76802753191223
H            0.16437107246657        2.23423859342865       -2.74117699469235
H           -2.24336570121820       -1.65243722534672        1.51187191981437
H           -3.86341741731433       -0.95478230108246        3.29854144689054
