42
 energy: -82.938327297142 gnorm: 0.000852948555 xtb: 6.5.1 (579679a)
C           -3.54226045474557       -3.48951752575068       -0.28255687405756
O           -2.89233738400505       -2.21436842653099       -0.16872165772657
C           -2.66837918330972       -1.55630298626086       -1.28222685672493
O           -2.95722455402018       -1.96482671597684       -2.39093484702625
C           -2.01976442991023       -0.21774530411910       -1.07491513309698
C           -1.59587216144364        0.53457785253491       -2.20938077528836
O           -1.84738137430096        0.16104707063976       -3.42238748694588
C           -0.83547125533823        1.80871084515577       -2.00648011058043
O           -0.31232727671504        2.39489803011484       -2.94955353715708
N           -0.83287085215348        2.24862928975138       -0.74005852749910
C           -1.33385920430148        1.51788633937439        0.35024494789301
C           -2.49949842120866        2.33155209008311        0.95926667536472
C           -0.14568635415573        1.34649630448594        1.38206023740204
C           -0.57591728436260        0.53846390681725        2.60445452679106
C            0.42330460930078        2.70713110581490        1.78307253797928
N            0.86560446142014        0.59934009782697        0.63188562602515
C            2.06036048714765        0.22606893761305        1.13157984067835
O            2.44582607665143        0.40221841346381        2.27389973625356
C            2.87112987118481       -0.44320525251594        0.08043029348915
N            2.53276355355479       -0.57997921441906       -1.16635712542920
N            3.56080571725837       -1.22764652175686       -1.78324216469165
C            4.46073360847144       -1.44409354796844       -0.87255807497654
C            5.76603744651198       -2.12081910157134       -1.03450411804316
O            4.08420169218659       -0.96968036593595        0.32475255893387
N           -1.86065705345980        0.21791589633257        0.13687436383299
H           -3.54699079832043       -3.92198284663652        0.71493885468769
H           -2.99253548037501       -4.12562179743878       -0.97812890870766
H           -4.56187421035930       -3.34808796923004       -0.64439288064895
H           -2.36907826179591       -0.68468618374388       -3.45696642490575
H           -3.29203257755839        2.38891341924281        0.21622802478547
H           -2.15710129266918        3.33546608440847        1.19377716092208
H           -2.88002325346124        1.84278771050722        1.85115872044559
H           -0.97134252156627       -0.42882780436887        2.30073416001163
H           -1.33613296087100        1.07473175605571        3.16787570455348
H            0.28573821203200        0.38414695546300        3.25258080996731
H           -0.29484989976750        3.25761018835231        2.38658951766267
H            0.67061499325268        3.28846798114914        0.89607886654981
H            1.32378643741621        2.55485837398362        2.37669546272587
H            0.69018428855185        0.41063231769652       -0.34577377433489
H            5.89156467410133       -2.43033613036132       -2.06921731491149
H            6.57374928676462       -1.44529689324648       -0.75318447041887
H            5.81506208437376       -2.99375837903251       -0.38363656377926
