42
 energy: -83.004912481110 gnorm: 0.000712360583 xtb: 6.5.1 (579679a)
C           -3.99298798438247        2.28001163193192        1.81539480008639
O           -3.35242427161888        1.87780635046281        0.59364848004980
C           -2.68210987697164        0.74686000948878        0.61096799885356
O           -2.57991801959990        0.00987019066212        1.55487981729818
C           -2.04564560974806        0.43072599512430       -0.77516463484687
C           -1.86474149881996        1.69075008834762       -1.61945963014768
N           -0.75910657608092       -0.16220084869274       -0.48941559104383
C           -0.64772245969155       -1.40907699301073       -0.28860798276795
C            0.69164499276677       -2.00501431664364        0.09813620733034
C            0.58484432363063       -2.67199887744192        1.47735693605191
C            1.14057528040542       -3.00433055083053       -0.97756792441923
N            1.63607412236815       -0.89324007989973        0.16549589334795
C            2.93691004576101       -1.03454991718724        0.47649638109024
O            3.49623562079082       -2.09236858470435        0.72174755707491
C            3.66869250758031        0.25823280847748        0.49907577674236
N            4.92672388726472        0.44254665973111        0.75354384982735
N            5.15256732606193        1.78416522071126        0.67217480099177
C            4.01835066010430        2.33640436692298        0.37432042973156
C            3.73885903117901        3.77571064872531        0.17986508795913
O            3.03694839806127        1.42636698384070        0.24942724238450
N           -1.69864423722576       -2.30761708388797       -0.41878789786506
C           -2.90332581746738       -1.99661832057237       -0.97513247048593
O           -3.78220205522731       -2.81342469868490       -1.12743493711739
C           -3.03282031434180       -0.53233698003805       -1.40993055872846
O           -3.89299158626288       -0.17796226542280       -2.17153726526325
H           -3.24156616544358        2.42070778125672        2.59408377399011
H           -4.50004498949560        3.21753063539027        1.60004009417831
H           -4.70827842412004        1.51687391770637        2.12810620049162
H           -1.28825663958384        2.42583909240186       -1.06408975972776
H           -1.33315101434501        1.43561323032728       -2.53392914319117
H           -2.83661535706258        2.10888586124877       -1.87436536353879
H            0.26663234247955       -1.94057342886262        2.21879965701459
H           -0.13652276622343       -3.48559323164527        1.44628842330849
H            1.55380095144894       -3.07688590646785        1.76392703723040
H            1.22611532528019       -2.50035665331710       -1.93894322004529
H            0.41513637823104       -3.81057364231642       -1.06193532618148
H            2.10595096876627       -3.42811598576264       -0.70688499072140
H            1.25833544006526        0.02776306332876       -0.01676708875392
H            2.99622711302148        4.11181115448532        0.90330339589775
H            4.65587233474541        4.34602703151473        0.30819602771611
H            3.33861275966069        3.94572494978207       -0.81916186318633
H           -1.56603214596332       -3.27339230648383       -0.15890022061786
