42
 energy: -83.581597949200 gnorm: 0.000339219694 xtb: 6.5.1 (579679a)
C           -3.83669948975304        1.37256853054961        1.67131663689409
O           -3.76149021812692        1.74828530772470        0.30327411556277
C           -3.75881911196365        0.71216129213437       -0.63475587971194
O           -4.84137852987285        0.74634516979439       -1.49764208695786
C           -6.12262770454217        0.81009871266573       -0.89854207720694
C           -2.71380371142917       -0.18174751077038       -0.75812082311384
N           -1.65111934462090        0.03076171182989        0.12758156783463
C           -0.61015168525367       -0.73096576567424        0.07250890415584
C            0.54510453261257       -0.53909154905336        1.04193264628949
C            0.44375710748453        0.83746318325958        1.71345533745744
C            0.48404055564038       -1.65795827269339        2.09425546094679
N            1.77905864872966       -0.65649106623470        0.25594719553738
C            3.02288542309437       -0.36214963724133        0.84682101745497
O            3.24234863703496       -0.48267281206061        2.07225689206117
C            3.98126225226808        0.02590104230309       -0.13413961418980
N            3.74915807664711        0.18311004469755       -1.44464198295703
N            4.92770685444096        0.60198111240259       -1.99900567415808
C            5.79675287536756        0.68221814640181       -1.04584441114206
C            7.21562253431765        1.10175468894743       -1.16613702052867
O            5.29494132389783        0.33795065220324        0.16554387324271
N           -0.49545086967407       -1.74974526815540       -0.82083456015737
C           -1.49383526444540       -2.09729880579083       -1.74481248727326
O           -1.26277551937239       -3.07902238693162       -2.49923112430760
C           -2.68627279277692       -1.27627733219427       -1.72826609742769
O           -3.65624741177167       -1.51289422424481       -2.52185953044711
H           -4.67117906030194        0.68451141888174        1.85453762749049
H           -3.99620775777766        2.28670270756010        2.24636657483575
H           -2.90414490903679        0.89649445070032        2.00166761163360
H           -6.25009697725225        1.73603640111105       -0.32533443517259
H           -6.29755597761722       -0.04475085938225       -0.23192605468917
H           -6.85778513570251        0.79103522534631       -1.70499368676995
H            0.51132192187651        1.62637395440379        0.96411033609446
H           -0.51586747081475        0.92235320451749        2.22231819927191
H            1.24194785775984        0.96585913036540        2.44260949543326
H            1.27070670535808       -1.53357779637777        2.83621019348998
H            0.60450433916484       -2.62814106290284        1.61285588984108
H           -0.48227697355747       -1.63098728113179        2.59722193151009
H            1.69706068242693       -0.24034493653566       -0.66833061019715
H            7.40028445520022        1.99677748331708       -0.57121598235843
H            7.87841919396744        0.31554626157062       -0.80412140762981
H            7.44344245731332        1.31220124279649       -2.20847951180644
H            0.33546048106043       -2.32037450810316       -0.81804144883606
