16
 energy: -34.296789477365 gnorm: 0.000678804891 xtb: 6.5.1 (579679a)
C            3.30825008950013        0.48954040732431       -0.39315210501935
O            1.88250961450465        0.38131646744634       -0.29621177565231
C            1.38406705004913       -0.84025437377299       -0.17550223895700
O            2.04082819776124       -1.85292977819245       -0.14389710095136
C           -0.09554529138264       -0.83174554869482       -0.07843122712918
N           -0.86589785419038       -1.86958071831481        0.05564236771594
N           -2.14088096655111       -1.40618074312273        0.11182210088076
C           -2.07375797928995       -0.11215100596265        0.00844150000478
C           -3.19282061859308        0.85388799607718        0.01092989443103
O           -0.80926434507047        0.31155817571336       -0.11481527883158
H            3.53428323105461        1.55290182543578       -0.42088859105635
H            3.65654414844182        0.00087685949754       -1.30543263373534
H            3.77748943628331        0.02022022805254        0.47397153810847
H           -3.03378989202589        1.60529448183014        0.78361677411116
H           -3.24342147733701        1.36610310147165       -0.95018111096519
H           -4.12859534315435        0.33114262521163        0.19327388704545
