47
 energy: -80.225181475814 gnorm: 0.000590937316 xtb: 6.5.1 (579679a)
C           -4.26516897473989        1.16139655016595        2.31150198288074
N           -3.16692863948225        0.84930766221665        1.39801364585865
C           -3.29133463785873        0.05558931774309        0.28277415058376
C           -4.60605264879549       -0.60244799166110       -0.16002754460195
C           -4.91229563850310       -1.82166994820160        0.72304792542979
C           -5.79295073692336        0.36859220258096       -0.21452269674116
N           -4.42191647745992       -1.10114604898920       -1.51906288868834
N           -2.27241908436696       -0.21095704317226       -0.47286976511542
C           -1.03392963118932        0.31015188880276       -0.23117448426366
C            0.03902643307592       -0.13972501314012       -1.18488893900518
O           -0.03900073918207       -1.20280346418221       -1.78734630537731
N            1.06941169995896        0.71434167631100       -1.32287417371834
C            2.19217916797839        0.41562639096115       -2.19784503289940
C            3.43597830981857        0.00632316531707       -1.43481228485703
C            4.60683206688784       -0.24667138637439       -2.14779995018941
C            5.76665311585649       -0.62328314790937       -1.48872067771018
C            5.78926241392206       -0.75664811174728       -0.09995920918879
C            7.05365951812861       -1.12987124282635        0.61314692993910
F            8.64144358883904        1.40245462974010        1.17475359856276
C            4.61370294705027       -0.50660964441249        0.60648886711525
C            3.45052255185394       -0.13116551578103       -0.05101051380174
C           -0.85262682030128        1.13368285253910        0.83944439922266
O            0.33098025460696        1.69626004417487        1.17171746465716
C           -1.95766258529730        1.44391113134181        1.72251868550465
O           -1.82160469061193        2.17952542613127        2.69895695176038
H           -4.88916594302632        0.28851919124793        2.46971353877783
H           -3.83249858002554        1.46849448495923        3.26357801849477
H           -4.85858451896917        1.98202677482894        1.91069117457550
H           -5.16319768580171       -1.53226614072211        1.74077544210359
H           -4.04965757747979       -2.48691986150876        0.75150983256223
H           -5.75765501942225       -2.35955585437128        0.29567345210084
H           -5.47781918654237        1.33839588939904       -0.59732474597668
H           -6.54162793091733       -0.04398495296208       -0.89077790051302
H           -6.25954160074569        0.50338359933618        0.75759412027747
H           -3.59926555463054       -1.69803316364848       -1.54569167691773
H           -4.24401130408431       -0.31611425938967       -2.13373703619009
H            1.07176001044508        1.59522035662083       -0.83764888864731
H            2.40341734579921        1.30183549873101       -2.80586095830842
H            1.88559711387852       -0.39193415336153       -2.87315891386428
H            4.60861179920225       -0.15028772059890       -3.22841062640763
H            6.66380027555430       -0.82305533965057       -2.06658097392979
H            6.83726484420158       -1.64405437119476        1.54964189940173
H            7.62844396798593       -0.21807628044929        0.84560314884713
H            7.67724183860206       -1.77209941009531       -0.00907964622923
H            4.59990488702450       -0.60991861007520        1.68702434123904
H            2.54910151864099        0.05889355728946        0.52105934905640
H            0.19212353673821        2.24536838468583        1.96595691373805
