42
 energy: -82.942636019371 gnorm: 0.000402270354 xtb: 6.5.1 (579679a)
C            6.27567284134616        2.34178842362732       -1.17750802662335
O            5.37076535833498        1.63635644602337       -0.32713329089762
C            4.31819071180243        1.07385851820097       -0.92229328269302
O            4.12425532753839        1.14491042758802       -2.11896101715372
C            3.40929323381599        0.35328248262049        0.00677070483101
N            2.34658518910210       -0.19918346863704       -0.61206825222369
C            1.45463600846155       -0.87929547151447        0.05251506746422
C            0.28033754860162       -1.48108428816694       -0.70034829718846
C            0.24508919043764       -3.00548211957824       -0.54139666585984
C            0.37703207386106       -1.10739734682835       -2.17995544769971
N           -0.96397018747820       -0.87788113646674       -0.19259661778057
C           -1.54979608334921       -1.15653391335745        0.98618763011012
O           -1.11528762156567       -1.90370791482581        1.85200678818948
C           -2.82644530217906       -0.42809631644060        1.17268327747684
N           -3.60434436768492       -0.50571360301728        2.26339221529961
N           -4.62144152213910        0.25596764967439        2.09526117080267
C           -4.53372768317693        0.88933898720526        0.80623422023276
C           -4.43915924632980        2.40881056944687        0.96391420590721
C           -5.70861286062797        0.46650396042960       -0.07855449880275
O           -3.31123088825442        0.38363965156658        0.25944640267653
N            1.55152819616731       -1.06849978243130        1.38922139994091
C            2.56150852998062       -0.54363122096063        2.17599690463223
O            2.56671409959071       -0.73640044113632        3.37628038930200
C            3.61449349282284        0.25214757462257        1.42980549417421
O            4.54661205733570        0.75168542479530        2.05571871320149
H            6.72022912179714        1.65795122894861       -1.90495953668566
H            7.04699079780376        2.76247585677507       -0.53518457292375
H            5.74982574629156        3.13819102015908       -1.70976368795843
H            0.24170211636532       -3.29830442979612        0.50589823621245
H            1.12220457311703       -3.43358051683867       -1.02408006144570
H           -0.65049207218988       -3.39621003824641       -1.02026485432790
H           -0.47807293972831       -1.51021571021560       -2.71837001011614
H            0.39821760349138       -0.02488718589428       -2.29571205099941
H            1.29221335854484       -1.51976613187779       -2.60199545603162
H           -1.43651834326003       -0.23979789323612       -0.81242122815776
H           -3.56888087456690        2.65509324762328        1.56881490247441
H           -4.34281751090912        2.86592454985876       -0.01763766972191
H           -5.34020953915118        2.77211063915663        1.45166402998026
H           -6.63661006142320        0.80484854589478        0.37559402710429
H           -5.71899932167193       -0.61726413160099       -0.17125847389443
H           -5.59464932283039        0.91450907552531       -1.06241805073002
H            0.82716757191243       -1.59646021867089        1.86901626990027
