43
 energy: -83.857229595110 gnorm: 0.000765236309 xtb: 6.5.1 (579679a)
C            6.76769669773153        1.33454451292458        0.95391897066449
O            5.58686915956536        0.59173970391961        1.24017761195179
C            4.58328750908518        0.71038886530022        0.34374015032179
O            4.69035001773241        1.41101060377497       -0.65101698507461
C            3.38671200258310       -0.07137158282737        0.68092986673206
N            2.36498229819960        0.04728119970559       -0.23851610225020
C            1.25856079537843       -0.58982089547661       -0.06336643026431
C            0.15187673724281       -0.51848171492942       -1.09808568157613
C            0.38422012703561       -1.69142045463273       -2.06729019350615
C            0.21746464858608        0.82447392557047       -1.84006313072043
N           -1.11128395385865       -0.68810735007967       -0.37779513866848
C           -2.33701989745339       -0.53324635774211       -1.12872632339830
O           -2.39268170064103       -0.79258589612597       -2.36447059729925
C           -3.39264225967816       -0.08465232552434       -0.37371949001023
O           -3.35034053694777        0.15880184252097        1.01119689774577
C           -4.61936313216238        0.45325012673039        1.34168001053911
C           -4.92240772394505        0.79553150337850        2.75648247797811
N           -5.47392358325321        0.41580669218205        0.39149834912984
N           -4.77324173005321        0.00339883751516       -0.77828108257365
C           -5.03422197952196        0.93980018665804       -1.87885781698905
N            1.04952695949070       -1.41458055449738        1.00903637865615
C            1.99108770758886       -1.60428707681307        1.99908445268475
O            1.78658365472250       -2.34142150712804        2.96842876983650
C            3.21843661997522       -0.87855389486442        1.79430260951101
O            4.16408824544351       -1.05123840117072        2.74929834962584
H            7.18027734952355        1.04011160282705       -0.01557121458032
H            6.55126127643301        2.40672234164927        0.93763794742255
H            7.48132249927757        1.11123549908079        1.74507905442481
H            0.26965915480945       -2.63542576818136       -1.53585978831210
H           -0.33111133479649       -1.65717652494604       -2.88686554894789
H            1.39354799767468       -1.63319247360774       -2.47425553662679
H            1.21192735338004        0.96086324664503       -2.26425385882472
H           -0.51928012667025        0.84365466163344       -2.64148020454603
H            0.01524026196625        1.64227234246825       -1.14914378108964
H           -1.13748633817613       -0.08299307405456        0.43661520037406
H           -5.98358123236243        1.00604152679507        2.86504352255327
H           -4.34599735297846        1.67018708738313        3.05746038573217
H           -4.64579823642753       -0.03156778171189        3.41027639064926
H           -6.10333987376673        0.94293560545544       -2.08428702730607
H           -4.70513602858886        1.95145164185301       -1.62331055159559
H           -4.48961757483552        0.58230256092918       -2.75236488875198
H            0.16105064752017       -1.88785132724607        1.10196220913331
H            3.80244487514989       -1.65583215535226        3.42158176724843
