20
 energy: -38.277974345420 gnorm: 0.000551961009 xtb: 6.5.1 (579679a)
C            4.13096801003608       -0.33498053738416       -0.08343884365401
O            2.79477146682119        0.09621093622472       -0.15369454686379
C            1.83025737636028       -0.93907403107962        0.16778042203977
O            2.26922425457281       -2.09547270500746        0.48597113795839
C            0.54367806033555       -0.52100927511739        0.08235092466253
N           -0.63588250935514       -1.27923258671231        0.32854516588208
N           -1.60846509058028       -0.40748889819657        0.10522880835226
C           -2.97667272223481       -0.84354292752880        0.24943363776030
C           -1.21297820377168        0.79231601758844       -0.26270852770101
C           -2.05191816887786        1.98630948634101       -0.54044113158280
O            0.15652022305984        0.84589942708298       -0.30036087651779
H            4.39877198171288       -0.68491092195575        0.92514303440207
H            4.76682599445471        0.51743532046088       -0.33803974815214
H            4.33771398057404       -1.15210258693199       -0.79133571017054
H           -2.97348642261065       -1.80461198244597        0.75943240778999
H           -3.53793208055941       -0.11473142686018        0.83163164547073
H           -3.43885384976925       -0.95108454035903       -0.73228488608156
H           -2.50549018426398        2.38241758188599        0.37237701025442
H           -2.85850213649280        1.74501034194888       -1.23412463606625
H           -1.42854997941157        2.76264430804650       -0.98055128778269
