42
 energy: -83.665357898820 gnorm: 0.000491263449 xtb: 6.5.1 (579679a)
C            6.16180230915843        1.15826159034697       -0.01273513752662
O            4.79231278194145        0.80912795319824       -0.01989640963392
C            4.52689306564435       -0.54994553861789       -0.15698133864958
O            5.47472709112164       -1.32736101710282       -0.26848789774590
C            3.12283067913721       -0.84787788018493       -0.14907054333092
N            2.27120418763749        0.24453599353874        0.00373469895696
C            0.99168608745739        0.02692999096301        0.00401950199877
C            0.11004739121428        1.26270316636647        0.22990021998917
C            0.64571208619031        2.46527682658039       -0.55087204977074
C            0.09093931887579        1.58060896465955        1.73006487839534
N           -1.26961749509772        0.95151517391368       -0.16489514729070
C           -1.58937829430502        0.48688978776867       -1.38368888671740
O           -0.96717364003719        0.69492839680651       -2.41632284633934
C           -2.83076037663091       -0.43485868702476       -1.37864504608290
C           -3.41657459312901       -0.59830057717986       -2.77874323357506
N           -2.39009606347937       -1.73778810248783       -0.83390333117288
N           -3.18880562021300       -1.96922047658909        0.31446346518520
C           -3.97491450487820       -0.98621487590345        0.44688558932253
C           -5.02549435825352       -0.82758485239570        1.48409225296821
O           -3.83338730758264        0.01741238638435       -0.47240732688003
N            0.36050748922246       -1.15790267772963       -0.12059323655381
C            1.09868058071743       -2.28144415691869       -0.27987691316562
O            0.54067433220297       -3.39480169234762       -0.41452625881512
C            2.61246698948024       -2.16800167029941       -0.29203388745248
O            3.30940614496155       -3.20441924247212       -0.42973976491987
H            6.22007345114062        2.24221915878812        0.08992019752260
H            6.68730927581480        0.68676792950335        0.82647433188875
H            6.65548356615692        0.85556544180188       -0.94420841261866
H            0.63791585287812        2.26598781594232       -1.62173547401326
H            0.04270549781351        3.35001849495038       -0.35088339331459
H            1.67344689345511        2.65323049561636       -0.23918339225483
H           -0.52029765643486        2.45897326636530        1.93316805548656
H            1.10849689082452        1.77223712589755        2.06940452316559
H           -0.31061673999206        0.73615606186413        2.29046828317590
H           -1.87614968326658        0.67203761317582        0.59047070279221
H           -3.79422894883051        0.35854751821499       -3.13288142302205
H           -4.23155060786784       -1.31781898027617       -2.75210591078906
H           -2.64129173160696       -0.95176625190863       -3.45645965558535
H           -4.90483712460087        0.12549709959787        1.99668531890185
H           -6.01122123781667       -0.83558399118572        1.01923779522673
H           -4.96063070340006       -1.64033767362969        2.20345772005395
H           -1.39829327561605       -1.64420090796257       -0.47885961783527
