42
 energy: -83.009432859210 gnorm: 0.000653370046 xtb: 6.5.1 (579679a)
C           -4.41637179823765        0.02592397632395        2.12388992150029
O           -3.47645444808244        0.20946615804936        1.05209375307515
C           -3.91533753622001       -0.01602231461438       -0.17183025053048
O           -5.03925309404452       -0.32457646469897       -0.46053527240897
C           -2.79077679135744        0.18428843612382       -1.22680028389895
C           -3.31214845814749       -0.23644175205677       -2.60139390443735
N           -1.69802928887757       -0.67763768433945       -0.82965271440322
C           -0.74469053642336       -0.23085989285769       -0.12610855546967
C            0.33772094216369       -1.16389224879880        0.37338633362577
C            0.06401029008433       -1.47878448124351        1.84673134081981
C            0.37445890790646       -2.44223278533818       -0.46810628144099
N            1.62483741266728       -0.47372511059825        0.28882078050358
C            2.02124413020482        0.11503418002507       -0.86359257095923
O            1.30237592300105        0.27017940414262       -1.83650475602717
C            3.42175782687043        0.59530850144585       -0.81936744670432
N            4.07327282752919        1.22878706479755       -1.74437572146769
N            5.32733966698683        1.44907149253053       -1.26078291101672
C            5.36500182401270        0.93566773198887       -0.07033310967928
C            6.50172346709040        0.91409589496786        0.87484163412761
O            4.19052741642136        0.38027839858548        0.26984771115904
N           -0.64131531995024        1.08421566517115        0.30797605803495
C           -1.43076424539346        2.09860762590472       -0.13504331480372
O           -1.30835201300844        3.24169126916762        0.24509213761203
C           -2.46685599215157        1.66623917452122       -1.18080060906036
O           -3.00923890351359        2.47134002710097       -1.89220734474785
H           -3.91855906126681        0.36483747104752        3.02892209911323
H           -4.67608084521871       -1.03069712286795        2.20536471117276
H           -5.31696367776547        0.61312184999084        1.93420601189087
H           -2.52378471464316       -0.12225920374258       -3.34246253835145
H           -3.62430586800135       -1.27768559165372       -2.56693024656616
H           -4.16189045923578        0.38573686271988       -2.87692349560168
H           -0.91383171500497       -1.94751861887684        1.94501080818778
H            0.07984881891567       -0.56486498282304        2.43745899204115
H            0.82312938297881       -2.15908295705240        2.22706425281845
H           -0.57688510512712       -2.96355815552451       -0.37687780592474
H            1.17510690447912       -3.08895410306731       -0.11658717979455
H            0.54360417585445       -2.19451813441034       -1.51542432915062
H            2.30209178416182       -0.65290752054375        1.00986091392582
H            6.25069724983924        1.48509206370114        1.76878490072208
H            7.38177726139115        1.34427090153412        0.40280061102134
H            6.71047411243114       -0.11078036179456        1.17988202823942
H            0.09089054668313        1.31571033705266        0.96060264284188
