20
 energy: -37.598264280481 gnorm: 0.000897196399 xtb: 6.5.1 (579679a)
C           -2.79931055609647       -1.16310501425523       -0.35185775416254
O           -1.46061692799052       -0.64365876219960       -0.15584348924996
C           -1.33382145310332        0.59490228744454        0.17413807607775
O           -2.15779502420918        1.42196379251303        0.39335778525259
C            0.22520478871394        0.97166227058842        0.31793207164076
C            0.41779600584739        2.46277755904684        0.08910623186419
N            0.57450166358758        0.48086422093249        1.59980028355371
N            1.35147193050511       -0.50242253856235        1.48372608925736
C            1.60092558003299       -0.68759379836582        0.14008908341606
C            2.46010875707635       -1.72077131970997       -0.41844097178822
O            0.97594755737688        0.17640150278082       -0.56562186087328
H           -3.21132539440253       -0.73856864238863       -1.26713939671292
H           -2.68616355754503       -2.24039804373187       -0.43918326305834
H           -3.42079776815628       -0.89741841668922        0.50350300119309
H           -0.22264393672899        3.00609462418637        0.78104648983640
H            1.46086682318557        2.71870053592577        0.25952727678282
H            0.14159544028214        2.70266965936654       -0.93536563973914
H            2.37454517051224       -1.75695596551512       -1.50215313888784
H            3.49440176650089       -1.50010366668129       -0.13688431397271
H            2.21511113461079       -2.68503728468674        0.03026243956980
