47
 energy: -79.524120962013 gnorm: 0.000466678077 xtb: 6.5.1 (579679a)
C           -3.51639552317830       -0.13015016380963       -2.56224611725321
N           -2.43826185280765       -0.45246234931916       -1.61542492675660
C           -2.32735200739745        0.06935894469851       -0.37387548173425
C           -3.54641050917739        0.66093741724596        0.35146923577036
C           -3.70642240144085        2.15914475226746        0.05780316606818
C           -4.84481440769387       -0.10200651921922        0.01103772108429
N           -3.32886007938053        0.48585739310975        1.78326942882493
N           -1.14906608988320       -0.04478498227745        0.24745326820841
C           -0.77971915426080        0.82744943858680        1.37833215290274
C           -0.13650039303246       -0.88870655303007       -0.19776827367570
C            1.03737699620708       -1.17320504335851        0.72036412461037
O            0.89496768849878       -1.25550184374393        1.92994995422701
N            2.19411684548687       -1.36722591091951        0.08141707723905
C            3.41484496441425       -1.70661496092852        0.80713884525339
C            4.35112233354397       -0.52198245357643        0.89662123060795
C            5.71668242179248       -0.69731346935802        0.68663033630531
C            6.59082141866236        0.37554411767302        0.79461912011000
C            6.07021372767978        1.61740308185448        1.11044736262149
F            6.90731781516569        2.65974640660789        1.21415577623655
C            4.71885130682545        1.82713566457609        1.32089982864341
C            3.86062647409889        0.74292931924712        1.21333504542969
C           -0.31313458642973       -1.54810281683484       -1.37157821961204
O            0.57923339540302       -2.41308791077733       -1.86013563937765
C           -1.48314157096929       -1.30016600754098       -2.19031087023152
O           -1.63021907314126       -1.78179549925234       -3.29544941729525
H           -4.24926606720317       -0.93430363365039       -2.57780680940067
H           -3.97482347524071        0.81543427557526       -2.30526975258794
H           -3.05800097765042       -0.05105802872474       -3.54825429879029
H           -4.60911985923580        2.51721102849574        0.55021862649898
H           -3.79511720968219        2.34369749139444       -1.01042158987333
H           -2.85573468142837        2.72219281614308        0.43679083340878
H           -5.35135673462973        0.29956633868756       -0.86182389508302
H           -5.52205494601078        0.00872058826262        0.85694990301459
H           -4.64675533163583       -1.16224606303185       -0.13310581790137
H           -3.98383082085897        1.06924143020369        2.28532020693837
H           -3.51213191650210       -0.47705962825180        2.03422071029624
H           -1.38100759034383        1.72683827793598        1.35661923979281
H            0.26836733292095        1.09471718289586        1.25683851340523
H           -0.92401424753213        0.30094376262776        2.31903596692808
H            2.25643607851645       -1.27034917868850       -0.91715240456919
H            3.89775022265533       -2.54160844468480        0.29273966625399
H            3.12227326037210       -2.03133670676340        1.81202749352742
H            6.10330437718010       -1.67821154296436        0.43637218933126
H            7.65396993792641        0.25217048818130        0.63339038460103
H            4.34834389717834        2.81459798843366        1.56287496514253
H            2.79831667574672        0.88394344554012        1.37161320265737
H            0.27857333646966       -2.74550293953478       -2.72650706179313
