42
 energy: -82.994284925748 gnorm: 0.000405335820 xtb: 6.5.1 (579679a)
C           -3.52487753767643        1.75636099420944       -1.09231056249201
O           -4.28602969618815        1.26260877442083        0.00707488805000
C           -3.88448085199893        0.34028684013456        0.86577912431179
O           -4.77442385254235        0.07506916914303        1.80007243665289
C           -6.02240000402309        0.77046179571717        1.79953230267632
C           -2.66829164485792       -0.34899453517658        0.87538347994841
N           -1.74801916229704       -0.05051141315251       -0.12730748337547
C           -0.62169592413085       -0.65836423276341       -0.18072869892756
C            0.36409539829446       -0.35212595478976       -1.29896655978840
C            0.56904295700073       -1.59362028182875       -2.17711824162874
C           -0.15199799248698        0.80233853038046       -2.15749578509503
N            1.64027538078537        0.09953289018127       -0.72493049457679
C            2.59802114182603       -0.68004898020189       -0.18827779833836
O            2.51510133774917       -1.88128165995580        0.01606046758716
C            3.79696726306656        0.12088243054414        0.16251141687544
N            3.91813000248051        1.41003380916223        0.05288124558788
N            5.17101279043254        1.72439621142432        0.48396064649636
C            5.73554724864411        0.60601169632822        0.82839612089296
C            7.10523621159812        0.41022798164928        1.35179891056949
O            4.91676130167545       -0.44094929519427        0.65163111400877
N           -0.25593927170415       -1.62424247934719        0.72425864139492
C           -1.02977192217561       -2.02194379997433        1.77871029572974
O           -0.64209079709995       -2.87121725392146        2.56139620379458
C           -2.38339082364593       -1.33749307956703        1.89050072015477
O           -3.13482242139389       -1.65281994107511        2.80668383033413
H           -4.15347979511346        2.50695825306578       -1.57160140000698
H           -2.59621519195816        2.21115854950853       -0.74482370955929
H           -3.29862982185884        0.95360387002671       -1.79552262232071
H           -5.85758327465401        1.84576836269620        1.89166039190538
H           -6.57062246508232        0.56443153890377        0.87805940309132
H           -6.57638396575994        0.39810000470019        2.65959791591998
H            0.88811014780398       -2.45160534518008       -1.58968468951736
H           -0.37149248714841       -1.83621835352854       -2.66935312941366
H            1.32219049095900       -1.38350570541604       -2.93444156933847
H            0.57160424505331        1.03563032804172       -2.93636098846711
H           -1.09320660330466        0.52077386181572       -2.62537335580907
H           -0.31560224275889        1.68795131596523       -1.54562022210787
H            1.85254983367434        1.08026593020879       -0.83286515431034
H            7.06634816807677       -0.03758451470752        2.34486200922487
H            7.61652170436599        1.36834279041740        1.40341841119763
H            7.65843028807197       -0.26448842912872        0.69854537840428
H            0.65550183830310       -2.06418167373722        0.62661411025804
