16
 energy: -33.374534827374 gnorm: 0.000937206264 xtb: 6.5.1 (579679a)
C           -2.35568068164807       -0.03499361564704       -0.28480914696265
C           -1.06940590835443        0.64913674058065       -0.09702563229579
N           -0.82903635721078        1.90468059130663       -0.00404504829617
N            0.50575565421711        2.09135928673010        0.16995614352746
C            1.08826517073282        0.95030317980966        0.18372969708967
C            2.52312645796913        0.61084727669590        0.34497245950846
O            2.92214731271264       -0.51559718560447        0.33444880871053
Cl           3.51405640743193        1.97724456387038        0.54259022328358
O            0.12902515942370       -0.05742728962230        0.01445501959472
C            0.36578800175511       -1.50361539163089       -0.04316878657594
H           -2.34083192014733       -0.63424512023299       -1.19580795925585
H           -3.14136486294591        0.71566652487663       -0.35447247797053
H           -2.55927100076132       -0.69941641121284        0.55604210791490
H            0.83352955724868       -1.79233868411779        0.89545507417551
H            1.01928363433654       -1.69123189681601       -0.89238433070131
H           -0.60538662475964       -1.97037156898553       -0.16993715174648
