42
 energy: -82.975481375016 gnorm: 0.000349606909 xtb: 6.5.1 (579679a)
C           -5.84190891613569        2.14448823600133        0.25470088932049
O           -4.40827831125452        2.16269548353052        0.27829654298669
C           -3.74391377315856        1.05164949502795        0.17521116022115
O           -4.47232539776101       -0.02023884459196        0.06351338700808
C           -3.97394179487802       -1.35631477677899       -0.08180315180574
C           -2.31624351068257        1.11972608243652        0.19144471812419
N           -1.60968350963440       -0.05722820449512        0.11065236608422
C           -0.29516875234159        0.01150502903042        0.12649173941855
C            0.43287822961593       -1.32471484812817        0.06278658883173
C            0.00786176890785       -2.08575031014521       -1.19972497305298
C            0.09862082335221       -2.12997668956872        1.32692908397871
N            1.86336718804225       -1.04207097210384        0.01415397546902
C            2.82090247509550       -1.97533899056283       -0.04696891249203
O            2.64198937241005       -3.18608584307816       -0.06655278215762
C            4.18955499872775       -1.38838774021978       -0.09238347655066
N            5.32283733574944       -2.01735439164324       -0.13984403911366
N            6.30087487128996       -1.06571154478500       -0.17604622272706
C            5.70269365325197        0.08402116943070       -0.14911029057461
C            6.31595954792510        1.43022121109929       -0.17291847910503
O            4.36738979410616       -0.04939251521836       -0.09547015161157
N            0.45709031519794        1.10768961263619        0.20751461452162
C           -0.14406244962253        2.31093452033133        0.29228039619629
O            0.42928773688901        3.40428180331540        0.37610960687806
C           -1.62107495976201        2.31516423349479        0.28831472399280
O           -2.17217793956726        3.51694415577481        0.37965687372661
H           -6.21821775679677        1.56059683388001        1.09588368702123
H           -6.19112422178991        1.70681918580557       -0.68152787812624
H           -6.15634098994498        3.18269628472770        0.33531515905349
H           -4.85737383277759       -1.98845030466700       -0.16345650860415
H           -3.38073148401587       -1.63401386592101        0.78974237732794
H           -3.36266633737963       -1.43291081938190       -0.98129112897660
H            0.30266788062136       -1.52844256289506       -2.08805618677098
H           -1.07425231947145       -2.20188620798785       -1.19906810334236
H            0.47098225989913       -3.07109751763095       -1.22406135259140
H            0.45099209590624       -1.59943502556426        2.21089215897492
H            0.56622533896788       -3.11266715805603        1.28719803957525
H           -0.98116972630192       -2.25100652478196        1.39491352505150
H            2.10999401596629       -0.05669208341183        0.03972994155239
H            6.02503472268513        1.98678694781721        0.71773690547806
H            7.39859431713844        1.34016865530484       -0.20993720838225
H            5.96527109913520        1.98229939192566       -1.04488206335545
H           -1.42041385759233        4.15648341004442        0.43207444856162
