47
 energy: -80.212075590108 gnorm: 0.000402939071 xtb: 6.5.1 (579679a)
C           -2.18819867801599       -1.96148363893962       -1.79968914716222
N           -1.65577156797154       -1.41422674880958       -0.55913518507249
C           -0.47764091338346       -2.10246532829277       -0.02419480086665
O           -0.10208319329705       -3.18013623291990       -0.58316819463025
C            0.06816287337146       -1.52506007854021        1.07412891740623
O            1.22628273776646       -2.10802686577464        1.67082619044756
C           -0.35473608868186       -0.21307699470993        1.65553125254740
C           -0.44607981380077       -0.25665400913647        3.19742458014052
C            0.68310531290137        0.86636199005555        1.24886861487684
O            0.43005488921137        1.82042831583323        0.51908281973003
N            1.92361520416804        0.66622181000791        1.76042866157613
C            3.03422747267754        1.52698248199199        1.37540883590747
C            3.68217908961357        1.05442194777881        0.09178810189188
C            4.79831021802379        0.22205858783344        0.13034418541756
C            5.38950728010214       -0.22515220454256       -1.04368555885594
C            4.83869829239953        0.17585110274819       -2.24673021074783
F            5.40710941482534       -0.24982823124038       -3.39032680547807
C            3.73272969141300        1.00328151415302       -2.32351251064909
C            3.15555038506453        1.43996388431395       -1.13997207477014
N           -1.65570226865313        0.19301272764037        1.15009558799908
C           -2.19256790107187       -0.36352938638562        0.12144039153164
C           -3.52971001822819        0.26540920168809       -0.30460085026508
C           -4.00241818748027        1.24580919111161        0.78415483230809
C           -3.36039009822946        1.04364432520475       -1.61661616618770
N           -4.55317647225571       -0.76909747629189       -0.48671932436046
H           -3.27708512822810       -1.98467089138299       -1.78828193763778
H           -1.81899736747378       -2.98465168726738       -1.91205659450236
H           -1.84790827623522       -1.37795522029553       -2.66196053576848
H            1.35190280126086       -2.96320977833193        1.23177390072263
H            0.49343619122577       -0.59524059599192        3.63025532087767
H           -0.68366477762821        0.73317784074430        3.58673598685120
H           -1.23711840513728       -0.94773527334334        3.48770869137883
H            2.16574298451153       -0.23341956178496        2.15082969875093
H            2.64537496797116        2.54293207341386        1.24860571939130
H            3.76170783527512        1.52536417668878        2.19100071591229
H            5.21868234354744       -0.07596041160035        1.08382504944347
H            6.26165989483764       -0.86502212838427       -1.02771590161860
H            3.34179174139938        1.30157952981972       -3.28771459838528
H            2.28889754050713        2.09187632756035       -1.17195211165586
H           -4.97567912489450        1.65221865936522        0.51188453672051
H           -3.29272490891708        2.06573800342015        0.89464807448256
H           -4.09021362513183        0.73309828994564        1.74131722240281
H           -4.26546201728876        1.61297642606721       -1.82751232846296
H           -3.17883237530116        0.37551545475751       -2.45609086647069
H           -2.52454518977656        1.73861906569013       -1.53096513990580
H           -4.80287872015781       -1.15822517956221        0.41345250542754
H           -5.38514504483305       -0.34171600431538       -0.86715955068967
