46
 energy: -86.307008335163 gnorm: 0.000366487508 xtb: 6.5.1 (579679a)
C            6.30403875879675        1.22203005791421        1.72351776997074
O            5.25487526629525        0.64569297388496        0.92588029974050
C            4.02221873311125        1.00305372765955        1.21109464442082
O            3.69619316091975        1.76755557940985        2.07992138049884
C            2.99927642690141        0.33725392357381        0.30632413550956
C            3.21865886027424       -0.83025177169485       -0.45018844211163
O            4.33062474206870       -1.48173035572900       -0.46925145066036
C            2.14675710492751       -1.35793283596931       -1.32401426505252
O            2.37121101703626       -2.32709673508656       -2.02754602684109
N            0.97732573001692       -0.66634388203515       -1.29444760271832
C           -0.04447259485074       -1.08734023567177       -2.24940029788810
C            0.73249002663333        0.43084789100686       -0.40101056232821
C            0.02775585745615        1.58350681077291       -1.12048333680098
C           -0.21774644474724       -0.11363106165643        0.88335196883134
C           -0.15536586491487        0.92033748878050        2.00137262479289
C            0.35276292815314       -1.44936738249334        1.33989366173883
N           -1.53244288809531       -0.33337005087153        0.39820556984799
C           -2.55325672743030        0.59268151759302        0.33030800822108
O           -2.45294298622788        1.76122285254376        0.62509638310293
C           -3.77833276875318       -0.05192561333185       -0.16900764859027
N           -3.89227399986111       -1.30040580247191       -0.52361405735897
N           -5.17067516991247       -1.47558760532446       -0.93260971566707
C           -5.76545400999519       -0.32174571713413       -0.80631562480305
C           -7.17088176225261        0.00846955260712       -1.12114660317031
O           -4.93468335531794        0.61262659370758       -0.32859154656207
N            1.83084103279590        0.92085736770376        0.27466053079784
H            6.30148628429544        2.30726338040441        1.60516186572197
H            7.23477204082883        0.79688671142515        1.35536917007331
H            6.15018470277993        0.96598402636475        2.77332094951032
H            4.26346144536600       -2.26544541597821       -1.06244760787660
H            0.13452367695572       -2.13402622727933       -2.49075004799994
H            0.03805586346157       -0.48054994153927       -3.15205019336248
H           -1.03139261251376       -0.96271681259691       -1.81468999523964
H           -0.11733221929599        2.41352546178873       -0.43302546673564
H            0.66734682271247        1.90552507008309       -1.94052853303685
H           -0.93308908119299        1.27063263159144       -1.51564852425637
H           -0.93324279894456        0.69187717790303        2.72876806210266
H           -0.30460173215757        1.93397505057457        1.63953848059320
H            0.82078081810509        0.86506866260600        2.48174069270203
H            0.21448213956996       -2.21809783006664        0.58283481830646
H            1.41235209189944       -1.36259026556358        1.57221480995935
H           -0.17325077705737       -1.75258401957615        2.24492810309272
H           -1.77708774125495       -1.27734737582401        0.13040313872157
H           -7.66036898401201       -0.85552744580152       -1.56412714586107
H           -7.69586508137292        0.29873321492403       -0.21024802210175
H           -7.20771193120791        0.85000865887422       -1.81276535123213
