47
 energy: -80.234231423917 gnorm: 0.000519931823 xtb: 6.5.1 (579679a)
C           -3.36287286573310        1.39680175328138       -1.21170558222025
N           -2.18302741589063        0.94640679939664       -0.47999844901485
C           -2.03789067648150       -0.34695950553804        0.02814897129875
C           -3.07632360956268       -1.44138822597269       -0.23139648331759
C           -2.52466666901437       -2.78736872647044        0.27291747803140
C           -4.38145655525577       -1.14081311009416        0.51993179285546
N           -3.37009805003042       -1.54753185754897       -1.66554851010005
N           -1.00399980188279       -0.69858051841054        0.69875134507272
C            0.06813037496044        0.19287706296584        0.92890600556952
C            1.29775453411520       -0.43776695539703        1.36521823059874
O            1.45357696827262       -1.66443407305975        1.47790451074361
N            2.32414583095470        0.42299810945072        1.72392726027566
C            3.67519555559640       -0.10638852744654        1.82527735262910
C            4.31243935226550       -0.21253803466527        0.45452256437225
C            5.12571775567078        0.81130322693920       -0.02590153926650
C            5.68225268266680        0.74068816310954       -1.29653213691154
C            5.40330982433069       -0.36978108092429       -2.07069942030373
F            5.94051012290879       -0.44884056503187       -3.30447808885781
C            4.60098286688715       -1.40621982165207       -1.62841210214897
C            4.05590739397538       -1.31819230157359       -0.35562241754246
C           -0.09503866498932        1.54531751484022        0.67194918278776
O            0.76140393246679        2.46953470328410        0.69408152895291
C           -1.54050995974126        1.98907313708900        0.32158185185617
C           -2.32007281213616        2.25329669476113        1.63195765888911
O           -1.45220738353298        3.17934944346389       -0.41926531660343
H           -4.18522814467377        1.67365259152148       -0.54211012257861
H           -3.69976904761011        0.61462305229538       -1.88994470898165
H           -3.09101239664470        2.27384422005280       -1.80330800954293
H           -1.58059763990937       -3.01803975905073       -0.22029121519280
H           -2.35331884669138       -2.74652863913563        1.34860580179088
H           -3.23975369842495       -3.57989702640938        0.05680338500509
H           -5.05433173071725       -1.99540889787113        0.45016391391702
H           -4.16985562755683       -0.94945039312441        1.57192221038515
H           -4.89145977832609       -0.27572084924627        0.10181969431489
H           -4.14484208631357       -2.18226029403056       -1.79392789837036
H           -2.57276137792340       -1.94445982929119       -2.14742617514717
H            2.26708151747975        1.37438601216026        1.37407309789042
H            4.26148865276768        0.56125166397354        2.46345930972328
H            3.62699913551475       -1.09343251717583        2.29800007531674
H            5.33672779965366        1.67258819794893        0.59759782533105
H            6.32129332840712        1.52618478555723       -1.67747725591749
H            4.41516485879520       -2.26098691819866       -2.26577802426020
H            3.42431932510235       -2.11912916965455        0.01463237928091
H           -0.52367009096173        3.48054595658407       -0.30398667143893
H           -3.30130697388307        2.66980519405787        1.41238944965880
H           -2.43694804098704        1.32731854122356        2.19278785247512
H           -1.76138186791750        2.97027077301481        2.23103039869110
