33
 energy: -58.555316214680 gnorm: 0.000395597501 xtb: 6.5.1 (579679a)
C            4.15617596155338        1.34587677520119       -0.25485722662680
O            3.24113836247761        0.33589378238605       -0.66938896811588
C            1.93930735490031        0.54639278109564       -0.36791613537059
O            1.57166817886279        1.56099096430501        0.19892114216803
C            1.06065617421731       -0.67391107653678       -0.66603760671550
C            1.49892895752986       -1.39992976622576       -1.94277414980023
N           -0.32377151370192       -0.23139278883641       -0.82029913099630
C           -1.04179109272680       -0.12381915464611        0.23607715269185
C           -2.43374575581124        0.48166788627504        0.11517898921689
C           -3.01297482537288        0.21144363605097       -1.27942800343746
C           -2.30223559527815        1.99171032582563        0.35691385606107
N           -3.29217778300234       -0.08209868336065        1.15799638311635
N           -0.63530481453486       -0.43336896628760        1.49562400493263
C            0.45397958361582       -1.37399522159106        1.67975598878250
O            0.52007157267827       -1.98969457161973        2.78268992599928
C            1.24956867198122       -1.49692274156479        0.58154419481999
O            2.35603602373665       -2.38638118987880        0.58345676459750
H            4.13974113583960        1.45991060215999        0.83353902939052
H            5.14667245575880        1.03183109500451       -0.58017203088873
H            3.90164647699812        2.30495404931568       -0.71593955588571
H            1.43449127094574       -0.72612811885454       -2.79671846827589
H            0.84049862829499       -2.25044412690696       -2.11708127259568
H            2.52250422052373       -1.75913856839333       -1.84742979864352
H           -2.35583164280703        0.63080407800951       -2.04189008058931
H           -3.99998027870748        0.66175243644531       -1.36987036150416
H           -3.10019328984631       -0.86158187631646       -1.44746928072384
H           -1.59606716558656        2.42139164670190       -0.35430277407718
H           -3.26811419886593        2.47978205933176        0.23361357814228
H           -1.94199709578932        2.17671376134844        1.36924446473934
H           -3.57996818532523       -1.01450097675326        0.89145723421906
H           -4.13058178679121        0.47433881282147        1.23702437517068
H           -1.35971243678551       -0.47578588241754        2.20017806750863
H            2.34136243101815       -2.83635998209503        1.44000569269419
