43
 energy: -83.136660375244 gnorm: 0.000521609700 xtb: 6.5.1 (579679a)
C           -5.85139809949340        1.05302960179824        1.21385205132630
O           -4.71180911811000        0.63175341211081        0.42607431020851
C           -3.61160606230430        0.28373521920460        1.10830917233866
O           -3.53160281817023        0.29541493519551        2.30172376821728
C           -2.48532942326839       -0.11586421368668        0.18799706613747
N           -1.35793362003585       -0.49442686371405        0.83160284372544
C           -0.32069235150434       -0.87037632718555        0.13384407222602
C            0.92606391230493       -1.32955133632367        0.86977320284381
C            0.79617754242868       -0.99743121014945        2.35701037054783
C            1.09721717240348       -2.84406463917434        0.67513241060404
N            2.10253897177090       -0.60823043391550        0.37084195042569
C            2.69098230316141       -0.78279251887880       -0.82842271636856
O            2.25354887577150       -1.48379020436533       -1.73472878145258
C            3.93902570692784       -0.00757798355380       -0.97558246548345
N            4.74357492069686        0.02054522731508       -1.99221338399782
N            5.75300430914735        0.87281940392464       -1.67065372438129
C            5.50488836276662        1.31606360066784       -0.47648395648631
C            6.29768564793675        2.27566785908420        0.32108656302380
O            4.37064976979091        0.79582558406906        0.02056749214850
N           -0.33867440948461       -0.91301948466906       -1.20994324884905
C           -1.41623280071821       -0.53708578671283       -1.99572981735769
O           -1.37298283700042       -0.56556875241796       -3.20816183582092
C           -2.53844533572430       -0.12011856610612       -1.17698616978612
O           -3.72856434975927        0.22833189355915       -1.87587666613966
C           -3.66427474854908        1.34238205935648       -2.83079104759289
H           -6.24078072319030        0.19717768788060        1.76678867493164
H           -6.58671813013152        1.42561607598569        0.50660443813726
H           -5.53931964018826        1.83799357982918        1.90379833472895
H            1.69691917702747       -1.30780050871512        2.88292325904447
H            0.65036522587318        0.07282188743388        2.49210078767959
H           -0.06078297798255       -1.52156727423375        2.77656801003159
H            2.00067189614785       -3.17031009653163        1.18721999131153
H            0.23808252143423       -3.35917543311006        1.10178264022693
H            1.17337396374370       -3.09751764781161       -0.37998911378118
H            2.55174047435070        0.01087282431038        1.02781469928239
H            5.68672789087967        3.14382121742515        0.56598282027618
H            7.17236291786397        2.59029579862653       -0.24317855183797
H            6.61029673792709        1.81193349440585        1.25617575707196
H            0.51649401376413       -1.22324191262096       -1.69831467660187
H           -4.44015990859497        0.40254223131446       -1.18262739734414
H           -3.33984112497089        2.24164519825336       -2.31058270781738
H           -4.67145451662810        1.44741505273610       -3.22434453741129
H           -2.96379031831427        1.05180434939133       -3.61054788799467
