42
 energy: -82.938962042950 gnorm: 0.000228824198 xtb: 6.5.1 (579679a)
C            5.85458083517095        2.35873701228655        0.56785133364861
O            4.74708100246984        1.47870946358348        0.37016153834648
C            4.69323858181684        0.40600487902889        1.17534626785270
O            5.52732720809651        0.18831560947954        2.02561217366831
C            3.51323914034092       -0.44548066876208        0.88388859832828
N            2.67361057719031        0.01638495257114       -0.06385595171749
C            1.61365831161438       -0.65929297104288       -0.41179189870759
C            0.70954772440605       -0.09507353249906       -1.49461708744138
C            0.55404329147164       -1.07641565999754       -2.66131539690422
C            1.28418546930326        1.22927277202607       -1.99823892964427
N           -0.59859540707310        0.20891464427746       -0.88854979198159
C           -1.53300858755041       -0.69866242351711       -0.54288146816462
O           -1.43021783989860       -1.91149188968065       -0.63339166890199
C           -2.74639386454036       -0.03918725439120       -0.00094719669963
N           -2.86174042309572        1.28172037632788        0.22303006154609
N           -4.03055415018626        1.51560384429181        0.69635267586453
C           -4.75716751058791        0.27381874320329        0.79113708126549
C           -5.98252527123154        0.30712234181697       -0.12688388626041
C           -5.12551063574850       -0.02528150206782        2.24663947135225
O           -3.82868705487548       -0.70241588881299        0.31744143203659
N            1.29717266856283       -1.84189938490278        0.16626166672910
C            2.03673410806648       -2.43751668254548        1.17374431600986
O            1.67585046301006       -3.49222513627998        1.65745509876499
C            3.28555790484760       -1.68348060514419        1.58705117963661
O            4.00735759879512       -2.14371743812258        2.46722893510761
H            6.79539159802594        1.82187091840842        0.42004964480555
H            5.75591146721715        3.15393366637663       -0.16797299337464
H            5.83181377876841        2.77435266531713        1.57866234604255
H            0.20023926913947       -2.04783222727318       -2.32492921099064
H           -0.15620928591053       -0.67216300995373       -3.38005505380678
H            1.51968962032286       -1.20324546431396       -3.14839338856026
H            2.26299191495799        1.05495407948501       -2.44203312186235
H            1.39898339201685        1.93066800947985       -1.17352921607469
H            0.62333805218167        1.65746278430814       -2.74877203515225
H           -0.82055065816936        1.18420947613229       -0.75421992175538
H           -5.66301462128765        0.51771259944719       -1.14499815950635
H           -6.66137195781071        1.08537109633795        0.21203101757645
H           -6.48124053530093       -0.65853492224226       -0.09409658430433
H           -5.78853045852396        0.75408737439133        2.61344568650167
H           -4.22096730418789       -0.05109495580662        2.85078484208602
H           -5.62632928986765       -0.98913351329169        2.29845557047743
H            0.45107187803983       -2.32508117793124       -0.12115797583720
