16
 energy: -33.419081443525 gnorm: 0.000514170370 xtb: 6.5.1 (579679a)
C           -3.29348014801614        0.68837856638723        0.11086268593724
O           -1.88182763413800        0.43681073746449        0.15571138756877
C           -1.34315901288623       -0.67108623040576       -0.18205468378429
Cl          -2.23622243895277       -1.96789063966189       -0.71422371283740
C            0.07302768376674       -0.76550620366242       -0.09110508796844
N            0.82932796885287       -1.80606872478583       -0.38183593576668
N            2.08479055930591       -1.45181633893563       -0.15614268589107
C            2.06904252231570       -0.19990644328306        0.26724667694411
C            3.22308657400822        0.63436965822873        0.63424816877486
O            0.83207300412846        0.27094944930784        0.32484992116982
H           -3.65068112009999        0.56166357087874       -0.91162606003716
H           -3.41917530998430        1.71494281855953        0.44782443534134
H           -3.80651009002228       -0.00959327528977        0.77315908488620
H            3.38655631861026        1.38664193559874       -0.14030968977643
H            4.11390685481971        0.01798408470703        0.73039350290167
H            3.01924326829188        1.16012903489187        1.56662999253754
