33
 energy: -58.546351832337 gnorm: 0.000551050294 xtb: 6.5.1 (579679a)
C            3.66082153376917        2.97814908086300       -0.09871938240751
O            2.50025608816332        2.15615508545681       -0.13769213601582
C            2.70975248430606        0.82915854793766        0.00037908978511
O            3.84990593144543        0.38609478502462        0.14978982664005
C            1.50853922204153        0.01468241427919       -0.04463484043600
C            1.57971189309112       -1.34676021522111        0.04666044117895
O            2.73771819867579       -2.00991321862945        0.19229018580919
C            0.32832532096736       -2.25398910068206       -0.15419596047213
C            0.33886481761191       -3.34284725547649        0.96881229594196
O            0.19323096622012       -2.69520838933875       -1.36195579854364
N           -0.83755682786825       -1.30901037941958        0.26058304635942
C           -0.79983788845388       -0.00112916968326       -0.09873382060065
C           -2.13570980397187        0.71076396935300       -0.27470042898839
C           -2.92392073444522        0.07853151657903       -1.43052840945925
C           -2.94506334499860        0.62925960651399        1.03262441746589
N           -1.87633767956091        2.10641819727935       -0.62243742967130
N            0.28396379092863        0.68819734265742       -0.21903739408338
H            4.33371026050867        2.73353714556321       -0.92623676181017
H            3.32385540727867        4.00979113222239       -0.18803850352237
H            4.19686214120650        2.84242873949269        0.84505013751194
H            3.49083862608538       -1.37444171098990        0.22824850863542
H           -0.57138685730838       -3.93436401520726        0.89229760370202
H            0.39351099065479       -2.88444262133621        1.95486034317669
H            1.19849920067646       -3.99410459638687        0.81887488938884
H           -1.72908941029054       -1.76939230053057        0.14894095863571
H           -3.12704407712597       -0.97364198224265       -1.23452528878055
H           -3.87441487922041        0.59593067863697       -1.55527857517244
H           -2.35547018124519        0.16594756077704       -2.35748478309501
H           -3.89768529029426        1.14334096507292        0.91285116850985
H           -3.14066644701142       -0.40863442270054        1.29988360961946
H           -2.39323527767028        1.10277929444644        1.84446530137349
H           -1.27170340269618        2.51266611340487        0.08503636135811
H           -2.74924377146954        2.61404720228391       -0.60484467203285
