42
 energy: -83.650086164218 gnorm: 0.000622255763 xtb: 6.5.1 (579679a)
C            6.25497281192810        2.13534128317448        0.51066453532401
O            5.06651776156215        1.84386804328165       -0.20514878779404
C            4.22115979089502        0.95413001901999        0.38802698421780
O            4.50816826646126        0.46696608781622        1.47827466491389
C            3.01829942332580        0.65842580511317       -0.36803447144041
N            2.18961301455604       -0.25000566830766        0.27631130945181
C            1.08668315387894       -0.61269124075228       -0.26576968274931
C            0.18454933399021       -1.66980875863266        0.34457017710859
C            0.47005792269963       -1.81116525011257        1.84749864988132
C            0.54028961178381       -3.00025951762341       -0.35171068102136
N           -1.20738783192360       -1.37184709380727       -0.01363583694421
C           -1.96993449366540       -0.39786054806829        0.90834703223767
C           -1.32790578171528        1.01763859228365        0.75984471733108
O           -2.12859614408158       -0.81402431937905        2.13128690199490
C           -3.34848849866769       -0.32486225212118        0.15794359510492
N           -4.01057874556628       -1.30968981080816       -0.36545587080377
N           -5.22697449257120       -0.80323982747163       -0.78495779442689
C           -5.21887666489253        0.45046616024415       -0.48044585602702
C           -6.29138523250874        1.44698436879216       -0.72085843659273
O           -4.06889544719980        0.82205541286927        0.11689949267102
N            0.69173455449565       -0.13660135076489       -1.49882961380701
C            1.40532066464659        0.75261653719025       -2.24505951041603
O            0.97815426998082        1.12604655426552       -3.34046475367119
C            2.71071275872252        1.21515103342683       -1.63664986426225
O            3.40941331689210        2.03006901444200       -2.27587974925029
H            6.02600538693440        2.53322832413836        1.50480670142620
H            6.80195957434977        2.88133443483199       -0.06481078584984
H            6.87080105567937        1.23735735965453        0.62688043582691
H            0.35554790796919       -0.85919947154540        2.36394009873842
H            1.49590567840328       -2.15795529879191        1.98298431341672
H           -0.21381428408071       -2.53220109170282        2.29209404939936
H           -0.04026021765434       -3.81646587753654        0.07627541578727
H            0.32068877709382       -2.93621503055002       -1.41731414642985
H            1.60015717489417       -3.22077068600989       -0.22470280412421
H           -1.73141219803803       -2.24395091600377        0.06682393277077
H           -0.33328612686666        1.02131522151685        1.20233850347333
H           -1.95027859095409        1.72876037622712        1.30103182408359
H           -1.26578153742797        1.31558287357483       -0.28586739073919
H           -6.60386530578766        1.89987810857285        0.21968173563914
H           -7.14379074827582        0.95823898608399       -1.18592165927195
H           -5.93077200128521        2.24084303340566       -1.37503032275138
H           -0.19443086798329       -0.46748361993495       -1.86073905241860
