42
 energy: -83.613833095165 gnorm: 0.000647721324 xtb: 6.5.1 (579679a)
C           -5.77506317875217        1.17299739447551        0.76874075715992
O           -4.63979101621835        1.36044568646983       -0.06372986960270
C           -3.48175266648437        0.79076153048801        0.37059041235043
O           -3.43485326328440        0.17368184727286        1.42727132526332
C           -2.35971598598370        0.89185140407994       -0.64919298086406
C           -2.39489353233566        2.21232047773626       -1.42241814364767
N           -1.08135513081185        0.75140154018475        0.02370376169542
C           -0.70858496285026       -0.43541128716954        0.35056173257015
C            0.52314424885413       -0.54883886492558        1.25356512919486
C            0.39062194551695        0.52713061660321        2.33918649844995
C            0.66098245251249       -1.92632823761844        1.91478441652211
N            1.72670971376670       -0.22749823679249        0.48045832860349
C            2.12748521942236       -1.07123484034388       -0.56050687459921
O            1.35328805071129       -1.89023451250475       -1.09698200079596
C            3.47557766726439       -0.85850691881396       -0.98887198953958
N            4.12329127229609       -1.46540829394734       -1.98744516175851
N            5.39062279248118       -0.95239271317517       -1.99530885484898
C            5.46757813684084       -0.08595349959490       -1.03981771512272
C            6.64916201349200        0.72499242255118       -0.65582711354016
O            4.30699471321407        0.04672217824673       -0.34955856640345
N           -1.37389687218149       -1.55800074765218       -0.01853780620560
C           -2.28375663935835       -1.57655875797429       -1.12695005970676
O           -2.52569313535392       -2.70759667706783       -1.63973724401172
C           -2.75589750414921       -0.31214411760622       -1.54860588099062
O           -3.50976949979430       -0.09576407173470       -2.55923330244600
H           -5.59736484474290        1.59555356315304        1.76273638938467
H           -6.60883745517481        1.69052559463610        0.29635885699771
H           -6.01226998204730        0.10935695553589        0.87714379378121
H           -2.33720582640847        3.05635339139572       -0.73577459099470
H           -3.31522499962374        2.28604090998276       -2.00115251852820
H           -1.54489625025503        2.25886340052405       -2.10403246977749
H            0.34104309302856        1.51248099921045        1.87531923325844
H           -0.52262081831396        0.36448430659717        2.91114795532218
H            1.24219869587351        0.49440369853269        3.01625822982638
H            0.83622646626059       -2.70485619979255        1.17365629930907
H           -0.24029138449076       -2.16363816282145        2.47857477401213
H            1.50604896870975       -1.91299798783020        2.60136182288908
H            2.48395108170519        0.13078367139295        1.04095093508546
H            7.48599652688610        0.47728793977115       -1.30435774928271
H            6.92507946703035        0.52500526341234        0.37951660503981
H            6.42798776188743        1.78905122381106       -0.74440007932199
H           -0.94025733915230       -2.44913188870103        0.16707271527109
