17
 energy: -27.463159310323 gnorm: 0.000819195551 xtb: 6.5.1 (579679a)
N           -2.57718521936415        0.29829090561526        0.76521095594982
C           -1.90641343629637       -0.15549128479129       -0.45458029779227
C           -0.40151381970571       -0.10681308355730       -0.29692962267649
C            0.28980787866202        1.08561135305814       -0.50765162241817
C            1.66460386851219        1.15270027812178       -0.32820711042145
C            2.32911135323046        0.00627578783696        0.06798399110877
F            3.66241908828944        0.05933654041004        0.24001478873947
C            1.67870234644474       -1.19337374089955        0.29117569879471
C            0.30324467415052       -1.23952699105893        0.10655422374626
H           -2.29250989628322        1.24969984359346        0.96002477929450
H           -2.26656197710971       -0.27338103908666        1.54035357759490
H           -2.22337943364546        0.48939204697953       -1.28016246415213
H           -2.23221682907313       -1.17853015880658       -0.66691618724660
H           -0.24898982359247        1.97208630882416       -0.82156176796827
H            2.21024017721431        2.07240138113420       -0.49412919176716
H            2.23523469603474       -2.06765080582564        0.60234666770698
H           -0.22459664746821       -2.17102534154745        0.27647258150704
