42
 energy: -82.932417301976 gnorm: 0.000238385344 xtb: 6.5.1 (579679a)
C           -6.64839744561898       -1.11925688065454        0.95299796761749
O           -5.29891757777941       -0.72133254439593        0.68869141733854
C           -5.11309194787071        0.11734080224161       -0.31878702333116
O           -6.02465607612453        0.55599734142481       -0.99960116433434
C           -3.69127366821917        0.46821668155169       -0.55748426467935
N           -2.76222248882203       -0.04062416884655        0.26851140585919
C           -1.48483539856566        0.26148743708323        0.01771286644303
C           -0.47959541561850       -0.33800117527289        0.98290230264232
C           -0.67563729332642        0.29370332895582        2.36887014385103
C           -0.66972580540875       -1.85934480390237        1.04504861719996
N            0.84694552277654       -0.01673116215377        0.46852194376854
C            1.99829324406467       -0.42618068107622        1.01718017531853
O            2.12761807439220       -1.07479577213103        2.04027928423941
C            3.16034873695355        0.00800861763047        0.18384587072817
N            3.05779832580920        0.75870160543856       -0.93294532161442
N            4.22800178377193        0.91843891926908       -1.42410662184781
C            5.18510854031247        0.23191375834119       -0.59875702955285
C            6.19397012650302        1.21790390809525       -0.00637931477736
C            5.86157731398965       -0.88947085812031       -1.39251733148670
O            4.38961077986842       -0.33306046824075        0.44420977106850
N           -1.03190238242036        1.00920643791350       -0.96037131368607
C           -1.90250950933314        1.58658716951681       -1.85712410603956
O           -1.51400112014202        2.29429067934788       -2.78047262636798
C           -3.33440844429333        1.28775928944727       -1.62486513955773
O           -4.21024312074766        1.82324679742272       -2.46224003620914
H           -7.25812737113882       -0.24318607617832        1.18405216791193
H           -6.61125571254512       -1.79354131056397        1.80589808643417
H           -7.06307971817981       -1.62958411726521        0.08091124402235
H           -1.69838373136369        0.11385958500242        2.69623698295061
H            0.01468569735151       -0.14857043474147        3.08481084679399
H           -0.50124158272167        1.36733458413379        2.31779818771629
H           -0.01007492089609       -2.29431297894897        1.79323705630963
H           -0.45194445646790       -2.30179481005175        0.07416080558917
H           -1.70412549927503       -2.07303969723571        1.31000758018563
H            0.85571164853874        0.53799864698343       -0.38595934488939
H            6.76766121126622        1.66681755299999       -0.81290511575597
H            5.66350036284907        1.99279024812510        0.54255653991170
H            6.86008506185915        0.68430602906617        0.66709270773035
H            6.54276642227766       -1.42865399231412       -0.73896842543779
H            5.10342794307253       -1.57105437417857       -1.77204797314268
H            6.41284693185474       -0.45494949647168       -2.22231518225169
H           -5.13030704063002        1.56157538275193       -2.22108263667169
