43
 energy: -83.164499819361 gnorm: 0.000460481625 xtb: 6.5.1 (579679a)
C           -4.35556778296266       -2.72716125736650        0.03026554907729
O           -4.39378060178554       -1.51571318186573        0.80111797721517
C           -3.56839349237537       -0.53402755041135        0.73759083229335
O           -3.64747930771234        0.35165510715870        1.66487687394681
C           -4.60308774062324        0.20715914178771        2.73195569408277
C           -2.52766755174281       -0.30843758798423       -0.26093881427666
N           -1.45852579590999        0.40675510957780        0.23213587392540
C           -0.47061327214203        0.71268043661920       -0.54245390610296
C            0.69047696981854        1.51044120775377        0.02808865957516
C            0.70865752259449        2.91411599573513       -0.59441046809303
C            0.54361590828420        1.60838416582561        1.54728206711291
N            1.95484778307410        0.81278846704614       -0.23133067138208
C            2.57789398891125        0.71770282932465       -1.42200839364738
O            2.12443138003190        1.10639440739392       -2.49163642827603
C            3.89710389164232        0.05757819352798       -1.32503711454919
N            4.74279792272732       -0.18173653742950       -2.27825593372299
N            5.80986966081528       -0.80529148055527       -1.71005326902098
C            5.55203222014201       -0.91121279039199       -0.44289835059338
C            6.39243827422670       -1.52158403074041        0.60931919805755
O            4.35642381102907       -0.38355771843371       -0.13341300135575
N           -0.45122056875201        0.38751391782484       -1.86397007808856
C           -1.46409781338542       -0.28802921329908       -2.48177466828118
O           -1.47608432376717       -0.57936980171538       -3.66318273155899
C           -2.57847858666210       -0.64797157577873       -1.58994044463405
O           -3.60530006438637       -1.24369282434488       -2.17923718784196
H           -3.33802735252319       -2.94533577799357       -0.28903807771186
H           -4.73094927733255       -3.50631606464819        0.69283478707255
H           -5.01356644060849       -2.61537786909125       -0.83117795778130
H           -5.61242385014258        0.23705931672069        2.32054049691750
H           -4.43679744008544       -0.74308369573405        3.23952919941162
H           -4.42905600208840        1.04609375792813        3.40132831848334
H           -0.19949531372618        3.44246636239107       -0.30887138266870
H            0.76029034888539        2.86299554339924       -1.67982484759709
H            1.57273330662994        3.46175253039445       -0.22170025464164
H           -0.38392228716428        2.12177723451127        1.79378349382607
H            0.51686648106276        0.61330901837877        1.98772478266753
H            1.38147875881099        2.16414729878111        1.96370026780982
H            2.42039407512104        0.42702228806902        0.57500909207659
H            5.86587321453530       -2.36301660980331        1.05940001478870
H            7.33045754985108       -1.86488465050193        0.17924359903586
H            6.59091940370491       -0.79234123853327        1.39432252254864
H            0.36499109270781        0.65700270900916       -2.42637110161152
H           -3.41005569871394       -1.34864958253234       -3.13505621649925
