42
 energy: -83.610183429982 gnorm: 0.000623219332 xtb: 6.5.1 (579679a)
C           -5.54090732073731        1.92725171761745       -1.17578460103800
O           -4.56898419284836        1.51780784206998       -0.23954240713649
C           -3.55409883734586        0.69627150165200       -0.75720258938131
O           -3.60347577860337        0.41367756162578       -1.97391903838027
C           -2.56272057038854        0.30022165236532        0.15903780909737
N           -1.63850472291852       -0.55827407514429       -0.38561187935349
C           -0.62400024448627       -0.99156095825480        0.27408980538879
C            0.34449377055236       -1.96311968630713       -0.37074364857112
C            0.68250397781128       -3.14602683815956        0.54232860973895
C           -0.25605305121433       -2.48201257913235       -1.68067106573423
N            1.57399934642718       -1.22646416024035       -0.74682359033690
C            2.59589068164754       -0.88459021625182        0.06064117894955
O            2.74678500356056       -1.23189113623635        1.23016694040108
C            3.55234475546036       -0.00552298924538       -0.64641188520757
N            3.40044875431864        0.49267299173509       -1.84435695331272
N            4.51097086792644        1.24705117290689       -2.09952937041770
C            5.26672907558510        1.16138573884297       -1.05033683639932
C            6.58411486724816        1.80139011610573       -0.83515646492719
O            4.72228809155522        0.39008223081066       -0.09384498767033
N           -0.29263409504645       -0.48882112384177        1.54433357892074
C           -1.04337370985434        0.49416468029127        2.12572542319316
O           -0.54335346269652        1.17496119395623        3.03104210043943
C           -2.55546080926708        0.52419667360395        1.70575851326332
C           -3.06732930166163        1.96254008178632        2.06355506155940
O           -3.17503529967755       -0.44348001785678        2.40081800395616
H           -6.25962502375802        2.55775112714117       -0.64975681278539
H           -6.06879803794387        1.06864471582558       -1.61055069552610
H           -5.09204718783336        2.50321116537767       -1.99506225635298
H           -0.20108580412115       -3.77505564282527        0.64901189517221
H            0.99352143080245       -2.81516878248085        1.53100578481102
H            1.48343905190127       -3.74002014143110        0.10491805223408
H            0.45151509648878       -3.13577647304389       -2.18732533479871
H           -0.50901674754443       -1.64797242852205       -2.33592192558535
H           -1.16799788577130       -3.03972568342211       -1.47021333585969
H            1.59205638495307       -0.84721020717523       -1.68222485724997
H            6.91024594380119        2.28088696647925       -1.75451313447311
H            7.31722779393269        1.05531443463985       -0.53239856312931
H            6.51616413027737        2.54882769577802       -0.04438269032082
H            0.65724675543159       -0.59892853295485        1.86811940486428
H           -4.15537931071162        1.96948329289708        2.07982230896979
H           -2.70723740462191        2.70770952129358        1.35283133881182
H           -2.71486798062703        2.22611559772850        3.06254911416869
