42
 energy: -82.993628336738 gnorm: 0.000469731120 xtb: 6.5.1 (579679a)
C           -6.41026603559056        0.12845436045911        0.71933587107436
O           -5.07888447344156        0.45856208717766        1.12117512558981
C           -4.08104301981678        0.25077519157916        0.28828889979151
O           -4.45857395873812       -0.27671236198639       -0.86299028476356
C           -3.59137315122136       -0.62471102691254       -1.94097773210915
C           -2.78600120602038        0.60336800161896        0.68236453969540
N           -1.75714141256383        0.39166178105226       -0.23258454102069
C           -0.55595624200158        0.72488168774227        0.05166221658069
C            0.56538974401467        0.55872900609071       -0.95237524120599
C            0.17845844229746       -0.43162597979529       -2.05248532520680
C            0.87880604136518        1.94194862015778       -1.54305488724086
N            1.72822466450357        0.04648844969292       -0.21713928210342
C            2.93862572005236       -0.14911305269256       -0.78874108913217
O            3.25787441376053        0.18480633636253       -1.91448139314225
C            3.86376315652742       -0.82065134142039        0.16022652944500
N            3.56577928583110       -1.25096368169815        1.34928838008047
N            4.70190286361096       -1.79818679401707        1.86498374248384
C            5.62062738300503       -1.66748037428304        0.95607666868840
C            7.03375415110728       -2.09910250454864        1.03044330084178
O            5.15224663153613       -1.05947747724598       -0.14344984296551
N           -0.20966441282161        1.31230666538317        1.24894468702081
C           -1.09228831308548        1.56696284975386        2.26517687155597
O           -0.71900255066415        2.07976599439461        3.30384375051598
C           -2.53519564473536        1.17393025755130        1.98610031399561
O           -3.37942262597921        1.36347896680491        2.85413507726174
H           -6.69236437362494        0.70541323135425       -0.16356407303562
H           -6.48537499563878       -0.93772659359055        0.49724581379816
H           -7.05206297491010        0.38601420536843        1.56007057858541
H           -2.85748647342606       -1.36538116324701       -1.62026565094031
H           -4.23670178883734       -1.04522549154703       -2.71251996238059
H           -3.07821643333767        0.25933087393371       -2.32217931058211
H           -0.07016471747029       -1.39772339030678       -1.61666897103731
H            1.00636615021567       -0.55352421796122       -2.74866098628893
H           -0.68581526175629       -0.05324212741751       -2.59417133039957
H            1.64681811704415        1.86266951374910       -2.30930329493725
H           -0.02602305576320        2.35046364603401       -1.98995086580712
H            1.22360615563099        2.61418577685104       -0.75943381416129
H            1.56172950042086       -0.40635036547058        0.66980800392168
H            7.20752746928366       -2.62384947636866        1.96663446777853
H            7.26654083216838       -2.75532267872894        0.19227633009733
H            7.69138719735668       -1.23154622009998        0.97192498708870
H            0.74959620171252        1.58371981622668        1.40268972257161
