42
 energy: -83.625098503519 gnorm: 0.000708028095 xtb: 6.5.1 (579679a)
C           -4.52123721935293        3.55112149819468       -0.22557518950282
O           -3.58839993406012        2.49599170533307       -0.31288242771935
C           -3.91715438706332        1.34813202904343        0.42682456880907
O           -4.96508935132348        1.36107158658086        1.08371219327307
C           -2.95772985820398        0.30986770393154        0.29452698818368
C           -3.09420063485096       -0.95733629482185        0.92481455999308
O           -4.00076191588117       -1.26082364335722        1.73048250097435
C           -2.06415071165298       -2.07693129720922        0.50352557302266
C           -1.75145775846855       -2.92869313969555        1.78504271060140
O           -2.42136223363232       -2.77730641107628       -0.53920695726132
N           -0.73017836774161       -1.31374926459180        0.24939120428122
C           -0.84743049184318       -0.20063101134994       -0.54221935848695
C            0.31976022710201        0.12253530656669       -1.48234906682996
C            0.21756190770089       -0.76041449790973       -2.73137094483944
C            0.27122795732921        1.59995747083906       -1.88206622912543
N            1.60281709522676       -0.07430680216981       -0.78210040514073
C            2.35052063804747       -1.18464504516728       -0.73338948298791
O            2.11123600001497       -2.26040261489548       -1.26790421798577
C            3.58500858322920       -1.00962199959080        0.08521585943802
N            4.46873254239323       -1.91912988322725        0.36632284876583
N            5.41726915396576       -1.32069775654432        1.14623128111379
C            5.05433124575118       -0.08640957647930        1.29208219072627
C            5.74956708694699        0.97607674100583        2.05136436842332
O            3.90321019856890        0.17837396820338        0.64959049914601
N           -1.84739692385710        0.59839851640258       -0.54259869011290
H           -4.64433789029733        3.89341354532756        0.80986266010302
H           -4.13977054600602        4.37526669954210       -0.83009770986734
H           -5.50533827486922        3.25083165105453       -0.60830465018811
H           -1.04650331105310       -3.71783758998021        1.52607468072037
H           -1.32587815340531       -2.30825751972291        2.57412948121025
H           -2.67645815366635       -3.38358021717401        2.13998160970121
H           -0.02874528926879       -1.96580269090314       -0.08262956851277
H           -0.62617544027826       -0.41684162472758       -3.33036422451001
H            1.12327968555360       -0.68892885258872       -3.33085916909640
H            0.04859824812720       -1.80254069915785       -2.46118138559365
H            1.07755426733580        1.83436320375602       -2.57460340988204
H           -0.68600565461491        1.81551271524890       -2.35659119118477
H            0.36471762121641        2.23324137889962       -1.00034619904444
H            1.95976867419161        0.73477405270997       -0.30191072500842
H            5.12534415949814        1.31803623608442        2.87694950821548
H            6.68665781477047        0.58913691515413        2.44293829808485
H            5.94859939442326        1.82878550846794        1.40341761806735
