42
 energy: -83.591213148983 gnorm: 0.000802266234 xtb: 6.5.1 (579679a)
C           -2.02229745840184       -3.10144176868778        1.95504320175031
O           -1.64175124357346       -1.92172185733044        1.28506094865141
C           -2.62380740517030       -0.90033617032363        1.27849324342413
O           -3.70799806439729       -1.13519978419077        1.84503911001104
C           -2.19778156954242        0.25785848569297        0.60139109774459
C           -3.04397558755220        1.46098012853405        0.43827491123983
O           -4.21097432311204        1.56485875072259        0.92914172253227
C           -2.44834036729784        2.48133465591761       -0.30919729289223
O           -3.04613928452016        3.69519856874686       -0.65076232834997
C           -3.45896521182667        4.51016115493885        0.43860544575512
N           -1.13701610243481        2.36438593966703       -0.81130735194891
C           -0.43172157216350        1.20606121830554       -0.61298342757202
C            0.96823739747312        1.13882426974247       -1.20852720981897
C            0.88628796726759        1.28310334662509       -2.73817701838423
C            1.83713610207224        2.26070199992525       -0.60890675927464
N            1.50961566254082       -0.16763957232287       -0.86710016522544
C            2.80817160329455       -0.54155347976390       -1.13590692076178
O            3.56468168181755        0.11137393199887       -1.89247171653937
C            3.21098994736742       -1.77123862707727       -0.51450519868472
N            4.39214566399838       -2.38519325006495       -0.61975331430814
N            4.31506665662327       -3.50913170227450        0.15518634158087
C            3.13461681088349       -3.53770126389716        0.68352761635742
C            2.59581756024938       -4.56914955223442        1.60448757574425
O            2.36652381174588       -2.48227102180726        0.31874213240464
N           -0.90861476984010        0.21449670109179        0.04804732518638
H           -2.90642319558147       -3.56209871619899        1.49353439052543
H           -1.18489927992757       -3.79918382532765        1.89178891706072
H           -2.24820914544747       -2.91077384743359        3.01288941318544
H           -3.85301410978652        5.43516287301078        0.01320294916221
H           -4.24542421487449        4.01926450232356        1.02723421219693
H           -2.61497511770334        4.75243102812708        1.09822881753040
H           -0.77646064022212        3.12644759750230       -1.35455472516092
H            1.88271281727170        1.24393940150301       -3.17608603363273
H            0.42896558904591        2.23559019392432       -3.00035710933802
H            0.28381169104302        0.47577859450744       -3.15510444912563
H            2.83604866843373        2.24174678851609       -1.04244320950520
H            1.91504894527071        2.13405344813202        0.47071769103702
H            1.38793799918148        3.23021841061040       -0.81632338880287
H            1.00581050428234       -0.66211389436104       -0.13443972580633
H            2.32736298151369       -4.12265364693172        2.56248728181604
H            3.35021224321141       -5.33501175969646        1.76678334407941
H            1.70158435877931       -5.02955625015182        1.18331465615754
