16
 energy: -34.296201664004 gnorm: 0.000685656514 xtb: 6.5.1 (579679a)
C           -3.61068775901933        0.06939180810497        0.26587947975540
O           -2.24048049204940       -0.20465569000645        0.58317029133999
C           -1.33008485335764        0.25021576089063       -0.27031899157791
O           -1.57924274031432        0.85944699051119       -1.28043120775497
C            0.03848459583142       -0.09006321112577        0.18861340044966
N            0.38636030028465       -0.71857882041220        1.27237178417349
N            1.74195278558431       -0.78125620967389        1.27067431730434
C            2.14299801787172       -0.18674067027925        0.18538433437244
C            3.53542603888658       -0.00042812936730       -0.27517676916968
O            1.11514884446985        0.27049487145603       -0.53873036233569
H           -3.79084758093459        1.14583885219232        0.29959671752494
H           -4.20912351768689       -0.43991657438965        1.01795841409431
H           -3.84594026950570       -0.30796856999210       -0.73144172353021
H            3.72640464258157       -0.63168423967915       -1.14377580702408
H            4.22361489215035       -0.27004951174364        0.52222626512274
H            3.69601609520736        1.03595234351419       -0.57006114274481
