47
 energy: -80.209728762974 gnorm: 0.000654750774 xtb: 6.5.1 (579679a)
C           -3.32685857810632        1.09438049795090        2.27920267703792
N           -2.20402986283361        0.27780455974036        1.84697220458790
C           -1.84585992974143        0.10071335402564        0.56626364571476
C           -2.63378112569811        0.70853189980553       -0.60313172985175
C           -2.17133465359691        2.15670408673445       -0.82131484678055
C           -2.34850707158981       -0.10123680013904       -1.88007344784566
N           -4.07500994249537        0.69874135195654       -0.34807920772906
N           -0.75728654129123       -0.51809984227250        0.20152115790618
C            0.12535898145088       -0.97968981538523        1.19247647763618
C            1.43071928689466       -1.42928536613131        0.71299187465435
O            2.35939362435790       -1.78372957696647        1.46173972894726
N            1.55085286577913       -1.48258615198116       -0.63921394621197
C            2.83213010937225       -1.73714821891300       -1.27290512185331
C            3.61759913659207       -0.45034717298134       -1.42344298286021
C            4.33553246097654        0.05982052226645       -0.34293167041572
C            5.02981146775377        1.25555921797126       -0.45778683355792
C            4.98779393223492        1.92463591260778       -1.66794369833935
F            5.65844811367161        3.08555903934395       -1.78694050712716
C            4.28800819639471        1.44821155866104       -2.76080027096961
C            3.59898561200626        0.24991062589511       -2.62683795835228
C           -0.20035803408049       -0.99514154848005        2.50992157701541
O            0.65574117175371       -1.41666702121637        3.46282462418886
C           -1.62171067392142       -0.63311211011453        3.02482351993646
C           -2.46318554276700       -1.96279953283452        2.91998971978971
O           -1.69185936186107       -0.03870232413607        4.16298727913909
H           -3.19136533617214        1.32123783828173        3.34306352980843
H           -3.36862301452746        2.03211728529664        1.72653398357303
H           -4.27947390919110        0.57159482304948        2.15069283091908
H           -2.42420070206875        2.78503375036836        0.03223487634720
H           -2.65067977870419        2.57129428577863       -1.70775361894383
H           -1.09132698722604        2.17927581292740       -0.96607121382814
H           -2.60861130637999       -1.14832037592320       -1.72741049441262
H           -1.29231686367134       -0.04086945100832       -2.14008349532614
H           -2.94004392236823        0.29304352400503       -2.70532075012206
H           -4.42570374178090       -0.24438763873176       -0.46339152048988
H           -4.53129482830253        1.26650212403809       -1.04787652269544
H            0.82488323434640       -1.03989520691252       -1.18895792994257
H            2.65061524879296       -2.19014947862839       -2.25064544049253
H            3.38377320254115       -2.44633948802987       -0.64668132784298
H            4.35188440922203       -0.48431732123452        0.59543797151772
H            5.59646353462530        1.66295498812571        0.36964009865392
H            4.28441715698253        1.99944195729859       -3.69157257236704
H            3.04724734276847       -0.14288385341130       -3.47275375432459
H            1.50850536917458       -1.66572198894485        3.03174761212355
H           -2.44936106974691       -2.36407328022223        1.90877186651672
H           -3.48946632238047       -1.75542903301476        3.21700857753935
H           -2.03591235718669       -2.69213241850984        3.60705002913412
