42
 energy: -83.647489349199 gnorm: 0.000846773431 xtb: 6.5.1 (579679a)
C            4.89659761688897        2.68336869762002       -1.26786002935068
O            3.93803829793627        1.76110483020782       -0.77638487647314
C            4.11976283312284        1.35255133635762        0.52083622037009
O            5.05017169373465        1.79898924436435        1.17738671085954
C            3.12276794166763        0.38877840366310        0.94624176449514
N            2.17557047729977        0.05812534620931       -0.00682947198868
C            1.25541100728898       -0.79925229124499        0.25002519287120
C            0.23422276397876       -1.15339377381156       -0.82406433630347
C            0.62196718676923       -0.43250788180380       -2.11887056523529
C            0.21286046702954       -2.66871362381073       -1.07741844922768
N           -1.09458797637136       -0.66002932845646       -0.44811885859619
C           -1.92041001489891       -1.21799785737314        0.47314470498068
O           -1.57770964754344       -2.12057323511392        1.24494884823004
C           -3.26610352174916       -0.48542432491482        0.63197420206918
C           -4.39768502683823       -1.49270845377315        0.90446225177302
N           -3.03856816722763        0.42428573557093        1.75991913805296
N           -3.19882068920485        1.67894947731986        1.25368467036723
C           -3.49872536298317        1.63401578842068        0.01062997288848
C           -3.78023119370225        2.76754430694864       -0.91227855359452
O           -3.55969585003492        0.31918752881951       -0.50373503190321
N            1.17080505516512       -1.41994669906368        1.47491042749141
C            2.03464122290510       -1.19280309271259        2.50769964359370
O            1.89873905507060       -1.79919249467438        3.57194440675606
C            3.12819260610576       -0.17941535393399        2.24731028029115
O            3.93766778325178        0.07729291105309        3.15990193485231
H            5.90411695029307        2.25584499822870       -1.22983051928542
H            4.63136849354046        2.90061876646041       -2.30170611202524
H            4.88601388505800        3.60945208652660       -0.68302411573039
H            0.63105991394010        0.64626461039476       -1.96459589913122
H            1.61753511360680       -0.74404604378051       -2.43101451038646
H           -0.08688252935545       -0.67425018132996       -2.90830320732614
H            1.20035705416232       -2.99422372744612       -1.40181284258022
H           -0.06124376398558       -3.22021422274880       -0.18027547777140
H           -0.50785492617341       -2.89840695355217       -1.86059553228149
H           -1.54877291886641       -0.09278747768023       -1.15038658534744
H           -4.09788054501627       -2.16377876960303        1.70776259504805
H           -5.29717060244640       -0.95574797048017        1.19874848106564
H           -4.60431833345825       -2.07209200470019        0.00618440144803
H           -3.00589308598087        2.86408076853030       -1.67803845856243
H           -3.82267654996567        3.69334788644716       -0.33953730692668
H           -4.73436991660518        2.62349065156597       -1.42321677994821
H            0.43173220358253       -2.09978561269972        1.62757067247056
