42
 energy: -82.954767619373 gnorm: 0.000761445970 xtb: 6.5.1 (579679a)
C            5.83957464528192        1.18715646831744       -1.41283683087146
O            4.57623562377648        0.76241432994358       -0.90471920199962
C            4.46727379878482       -0.54772915905703       -0.60899809447816
O            5.38511606859417       -1.32280745525813       -0.77630954299564
C            3.13450872795283       -0.88557226033095       -0.06847100234945
N            2.25289262637227        0.14147513414774        0.01218217822048
C            1.06668623317087       -0.04731355507185        0.49787067321912
C            0.08969356896667        1.09461002571322        0.60596507333778
C            0.54797545494210        2.28229134092272       -0.24063306648463
C           -0.09637526081256        1.49161065799222        2.07286271960761
N           -1.22244155965282        0.61704090330789        0.12084423232966
C           -1.30677288743135       -0.02348181244706       -1.04030104958231
O           -0.37777335885940       -0.36635822121603       -1.73295576648433
C           -2.78020679582501       -0.37794871760338       -1.48435448584818
C           -3.03343480093940        0.26515632992614       -2.84643120078178
N           -2.87740960041681       -1.79693161243935       -1.49293306043911
N           -3.75295323920110       -2.15813505258128       -0.60872592461355
C           -4.25379767843532       -1.06445980794766       -0.03929857464595
C           -5.27044065159086       -1.02122896664398        1.01951064695577
O           -3.72103867378216        0.04019538300897       -0.52036611583024
N            0.66437455475000       -1.25626786277958        0.98863496577359
C            1.43092521155358       -2.40194970219036        0.94332873940472
O            0.98790023964831       -3.45356853237398        1.37110001496672
C            2.81145346897952       -2.22417663187938        0.34264610085667
O            3.55744058595075       -3.19967419339749        0.25158764604217
H            5.74439633790526        2.24617971158075       -1.64230102581519
H            6.62022697959128        1.03413132574895       -0.66279466961714
H            6.09614598134940        0.62776300132360       -2.31658074425019
H            0.67157677474693        1.97524594409079       -1.27836779152334
H            1.50299959577126        2.64555402397174        0.13587873288700
H           -0.18874483933837        3.08015671114450       -0.18630951921003
H           -0.81420239627374        2.30565762030766        2.14576601611018
H            0.85532028147053        1.82086229373267        2.48699517731101
H           -0.46331495667880        0.64496480456032        2.64997709119229
H           -2.04841883291662        0.96207824348875        0.57644701889350
H           -3.00885888597609        1.34663939967436       -2.74185184846311
H           -4.01078939555341       -0.04333345133558       -3.20919449626850
H           -2.25742984950874       -0.05938646227267       -3.53681503037262
H           -4.82070882166455       -0.64882700532025        1.94113648488240
H           -6.06052594599393       -0.32327417403265        0.74194603583133
H           -5.68130267664027       -2.01299692433222        1.19008548449925
H           -0.25577465208081       -1.33576009239996        1.38949801060398
