17
 energy: -27.463347596491 gnorm: 0.000374425943 xtb: 6.5.1 (579679a)
N            2.50760028340678       -0.84942188485551        0.08471721962433
C            1.80820139842855        0.40445676311271       -0.19981573929852
C            0.31279600908943        0.22199862147990       -0.09440679931395
C           -0.26865187040892       -1.00157640542520       -0.42107414482662
C           -1.64280641158164       -1.17762263828313       -0.34794558734562
C           -2.41923876233804       -0.10635838239105        0.05510296232689
F           -3.75327763920287       -0.26750575989920        0.13068671414247
C           -1.87890693716921        1.12263459615412        0.38644726526708
C           -0.50136141930221        1.27837571971810        0.30837786544258
H            3.47779512360632       -0.73883560230077       -0.17277121505589
H            2.47965565346909       -1.01978365229723        1.08140504451106
H            2.13837895117791        1.21007971729526        0.47209733770542
H            2.05598801323979        0.70371493419010       -1.22539542889432
H            0.36727276962728       -1.82485812483707       -0.72804349567644
H           -2.10486071900614       -2.12466063872530       -0.59562752649168
H           -2.52026744528481        1.93559332879031        0.70105349335540
H           -0.05831599775153        2.23376740827396        0.56519203452819
