20
 energy: -37.574748946088 gnorm: 0.000859012929 xtb: 6.5.1 (579679a)
C            4.12062438405184       -0.23725208006822       -0.56903384669135
O            2.70541280401738       -0.21637739521865       -0.84315075795206
C            1.89967675113830        0.00528549513686        0.15524044274440
O            2.17057388952701        0.20304771358467        1.30044435946921
C            0.44799375765647       -0.02028748619922       -0.34369965915182
N            0.04679024569194       -0.22776328676058       -1.64442082996708
N           -1.21173047990936       -0.18117677794676       -1.65747983612740
C           -1.71375528095910        0.06065430307848       -0.35389851885820
C           -2.47897996052495        1.39221577136417       -0.29270992440269
C           -2.56841085251591       -1.12034518708216        0.13411733323815
O           -0.53214971608206        0.15122293436885        0.43368971913627
H            4.33000407619392       -0.98617430940340        0.19602222152886
H            4.60406087883953       -0.48977474926688       -1.50940690237889
H            4.43401789819311        0.74695408609397       -0.21828876325855
H           -3.35857936937382        1.31536644083713       -0.92682742111866
H           -2.77289631681983        1.57565912473001        0.73812090527816
H           -1.83142052293887        2.19220566059406       -0.64463372789714
H           -3.44319384032855       -1.20217233078697       -0.50607606170083
H           -1.97830275381306       -2.03266899285180        0.08174281203796
H           -2.86973359204508       -0.92861893420347        1.16121045607153
