42
 energy: -83.585590233650 gnorm: 0.000349916687 xtb: 6.5.1 (579679a)
C           -3.52505410966585        3.96553917923432        0.46499026226229
O           -3.47742826255873        2.54582014493978        0.49453791438743
C           -2.21430816312376        1.99488866130453        0.43822274438659
O           -1.24194124463586        2.73817563797212        0.37193927029854
C           -2.18126861264134        0.54167846585145        0.47550591055711
C           -3.26056486220781       -0.30158359016769        0.48583226939904
O           -4.56312975971729        0.09558904822269        0.39657443376870
C           -3.09874823489855       -1.83889120967132        0.76103244344684
C           -4.02040550532247       -2.59891858544780       -0.27535419038801
O           -3.38482829813631       -2.11678963163597        2.01838195933662
N           -1.69789909436016       -2.22845629943319        0.35963209071224
C           -0.78887102903158       -1.30522173157266        0.33242833927645
C            0.64495724793878       -1.83050555139548        0.09753174870255
C            0.69831893531303       -2.55006873778119       -1.25741906356435
C            1.02691710178201       -2.79348324342427        1.22944654924681
N            1.53801825222212       -0.67404628556171        0.08820909544098
C            2.85571310505685       -0.70786824671426       -0.09679847682990
O            3.53954451892975       -1.72011205069793       -0.25537290004487
C            3.45082642161781        0.65748354984425       -0.08802967474159
N            2.81855670030223        1.78232629343566        0.08270243787811
N            3.75335985870580        2.77692548285622        0.00718635261662
C            4.89188424272704        2.19822043315786       -0.20486715993395
C            6.21651878339576        2.84114903523540       -0.35951119192206
O            4.77596651136343        0.86147439971443       -0.27492782303060
N           -0.87957941130429        0.02394179620358        0.44609069187041
H           -3.09517870896047        4.34855103579481       -0.46616203145115
H           -2.97265996435339        4.39044897397236        1.30963845142692
H           -4.57257533484726        4.25455434612684        0.53042224231601
H           -4.65834816600367        1.05726981023184        0.33087447864543
H           -5.06671944210884       -2.37429967213836       -0.06985834491881
H           -3.77796818654131       -2.30991646777065       -1.29853810626032
H           -3.85788885752146       -3.67036202334510       -0.15711640320846
H            0.51738981753477       -1.84209526884783       -2.06666592284191
H           -0.08247966794768       -3.31161512491880       -1.27622779603897
H            1.66568384717396       -3.02588983425403       -1.41614026828078
H            0.25329793622352       -3.55924204819639        1.30601863517098
H            1.08721880934107       -2.25725564383075        2.17720523990560
H            1.98569560631240       -3.27332790843083        1.03512794549045
H            1.04295338315928        0.22111399991894        0.19185513551113
H            6.09610905827714        3.91990915552878       -0.41378962153983
H            6.85462887522498        2.59351493357472        0.48870209900422
H            6.70428490328679        2.48137477211015       -1.26427476606055
