43
 energy: -83.826640084520 gnorm: 0.000923721797 xtb: 6.5.1 (579679a)
C           -5.26703246742939        2.30908228637291       -0.79902881393133
O           -4.13763144603729        1.58315951314966       -0.34125057770011
C           -4.12864693381904        0.22860420425450       -0.69925682279367
O           -5.07873554615448       -0.21557606663672       -1.39648481749419
C           -3.06071600471014       -0.53263636842392       -0.24395367649234
C           -2.89299232176722       -1.92318376879779       -0.66021872659097
O           -4.01931551750793       -2.62008320532104       -1.06173195965954
C           -1.66237643856182       -2.52540281112232       -0.66475905388575
O           -1.26625421118163       -3.68107874313767       -0.95880483217671
N           -0.59880171145282       -1.59354008452968       -0.21865508028102
C           -0.78409801546431       -0.49897325678515        0.50484268373898
C            0.46712430542339        0.04663548272671        1.20345825405346
C            0.51776175289725        1.57690228346177        1.32698575554990
C            0.57650495344115       -0.63971365996645        2.57299454065690
N            1.58240547100065       -0.35372222558424        0.33396837523559
C            2.90881268313124       -0.27426721979335        0.74375499584338
O            3.28342265672061       -0.26555566107462        1.91630705893573
C            3.79473689229408       -0.26880614516632       -0.40518977058237
N            3.42726676794683       -0.24746167317305       -1.67182942547378
N            4.57572627265205       -0.22777856183761       -2.41065455645259
C            5.56359301406645       -0.23508076808562       -1.57288629843508
C            7.01093138215421       -0.22859277614546       -1.89097133789123
O            5.15343197956769       -0.26085760819494       -0.28996169663770
N           -2.00133860019318        0.00841576432450        0.57692354769452
C           -2.40173797520436        0.96594686202270        1.60474884094723
H           -5.15479752715781        3.33341223582569       -0.44202053964696
H           -5.31992204577499        2.30836177284699       -1.89435017583312
H           -6.19675256859301        1.88464492391641       -0.40229499607841
H           -4.69901174875892       -1.93373011816710       -1.28199560661166
H            0.32800694573796       -1.99743397737065       -0.22956612387788
H           -0.06630652634208        1.93605865424127        2.16927125384940
H            1.55248964866619        1.87438940664806        1.49268132986754
H            0.16219597636362        2.04869786751204        0.41250195490806
H           -0.38035942070185       -0.59297053653048        3.08987115862917
H            1.32487203634164       -0.14529932270739        3.18751796172632
H            0.85563520681969       -1.68441356601304        2.44420818990509
H            1.45672418196820       -0.06278499280933       -0.62995311071755
H            7.14998229931295       -0.04636801433280       -2.95438047748176
H            7.45700587093337       -1.18957429067670       -1.63030805337892
H            7.51863009867894        0.54547749500459       -1.31562621075153
H           -2.29184311822878        1.98810200033838        1.24556988594087
H           -3.44727824405911        0.78584668268939        1.84791766948765
H           -1.81131100701698        0.82114498705240        2.50533328388703
