38
 energy: -79.626795040718 gnorm: 0.000157205267 xtb: 6.5.1 (579679a)
C           -5.87762017365459        0.45068121818875       -1.10828298317676
O           -4.54186783640775        0.31266397258060       -0.64719715951768
C           -4.33709121825482        0.61988976647035        0.67228084310808
O           -5.26777339163691        1.00503118033587        1.36364881859356
C           -2.95879039375133        0.42004368886577        1.08362831207590
N           -2.10051775124824       -0.01520136077449        0.08851569813616
C           -0.87112498769988       -0.24776603372485        0.35425447488799
C            0.07170636182579       -0.77209722907160       -0.70979224713623
C            0.23388832611455       -2.28602920923362       -0.53882219739224
C           -0.46363184120618       -0.43845612314293       -2.10470175945182
N            1.39697515638738       -0.16883475640525       -0.51674494452047
C            1.59635628217458        1.16367159887199       -0.50759797225033
O            0.72289880979519        2.00748861658366       -0.62559656892266
C            3.02235270140245        1.53023471760524       -0.29941216356294
N            3.52655066940676        2.72132532147158       -0.20607615314290
N            4.86435381469099        2.56669016266710        0.01094183487516
C            5.09268661643126        1.29131273594486        0.03769790882704
C            6.38593778138209        0.60451832377136        0.24396336933733
O            3.96970443807568        0.57862126646323       -0.15106304195990
N           -0.35129348323812       -0.10044506180124        1.62378710005314
C           -1.07870170423760        0.34033749119827        2.69834145334569
O           -0.53883943176068        0.45396297951780        3.79677772158716
C           -2.53465481092449        0.64689154233832        2.42065491245768
O           -3.24587840486098        1.05699137417688        3.35568528463120
H           -6.22141623756622        1.48550180612644       -1.00684155227981
H           -6.55229254623697       -0.20170474358001       -0.54408241981264
H           -5.88406207770415        0.16293346580983       -2.15873916766217
H           -0.73317244128252       -2.77349572718321       -0.65499701228962
H            0.62634249246694       -2.51265995248825        0.45104686993825
H            0.91873427416391       -2.67849803118679       -1.28782640595527
H            0.21492747113401       -0.81873516812049       -2.86511427509688
H           -0.56845146581099        0.63966567262103       -2.22189665313224
H           -1.44183975609992       -0.90096813936630       -2.23040038014092
H            2.19258509532420       -0.78026733880439       -0.48381387357764
H            6.61481687130427       -0.02203291819940       -0.61750046566249
H            7.17444833968614        1.34034604286335        0.38028899498212
H            6.32962438827819       -0.03929921049561        1.12138298126905
H            0.61413106353208       -0.33426294089122        1.78359981853536
