42
 energy: -83.633068583305 gnorm: 0.000686512571 xtb: 6.5.1 (579679a)
C            6.85654151655606       -1.03535264289234       -1.15708495958517
O            5.73004432045760       -0.98921406109134       -0.29698192018013
C            4.63665207130536       -0.34270229824188       -0.78890670516014
O            4.66875336673286        0.15530133620470       -1.91068148314485
C            3.49576791592615       -0.30455470477957        0.10802785879995
N            2.41407188728290        0.37627405033622       -0.43029979653307
C            1.33005386132684        0.50892922982477        0.23998987947560
C            0.15705098186564        1.31698478740197       -0.29012826744779
C            0.31555079519795        2.74285612369349        0.26900946588239
C            0.20046521353766        1.33052597397144       -1.82707173058113
N           -1.06002476044435        0.69158257590215        0.22966499898851
C           -2.34018911218872        1.19828354961369       -0.25831372691486
O           -2.44719783589098        2.39704458196654       -0.63479814952069
C           -3.36083396727327        0.30244507836751       -0.00518155985018
O           -4.64334519345152        0.44593574510029       -0.63476567498372
C           -4.99391338631626       -0.79543507188075       -0.97129111668484
C           -6.26476920001326       -0.99058684147712       -1.72692534154775
N           -4.21449059021520       -1.74761605329062       -0.62044669272853
N           -3.12983968939119       -1.13787140413717        0.12822978566361
C           -3.30097334492713       -1.59598907371260        1.52112752964196
N            1.19952261967838       -0.00342687207689        1.51443376671439
C            2.17652237017218       -0.70016764363238        2.16507228245439
O            1.97467134077307       -1.12918585379094        3.30265825954359
C            3.47122922673041       -0.88089545655396        1.40432796242942
O            4.40244107922410       -1.50476671334338        1.95411317397570
H            6.61599092694733       -1.56073599477907       -2.08729657396392
H            7.64358573444269       -1.57082556622831       -0.62721159414732
H            7.20074262436983       -0.02568221251916       -1.40432614514205
H           -0.44324235173340        3.40685101927741       -0.14104356734335
H            0.21870119795835        2.72530161576529        1.35436789222769
H            1.30119095404255        3.13000743007243        0.00898142356323
H           -0.58675103751569        1.97113845469119       -2.22200496675708
H            0.06632624188678        0.32038702001606       -2.21492684765712
H            1.16760733286506        1.70610087084704       -2.16241425148710
H           -1.03075331134876       -0.31423613113241        0.05814712077995
H           -6.23054281111551       -0.44893326772730       -2.67210646913544
H           -6.41982750183861       -2.04906372968879       -1.92113644761931
H           -7.10215267522348       -0.60432091244058       -1.14673750009646
H           -4.28026077749738       -1.31123375468900        1.91817736618002
H           -2.51690602200590       -1.13821272596573        2.12185978638479
H           -3.19967774625349       -2.68066570843597        1.54718819229125
H            0.32220973536106        0.13572425145705        1.99863574321701
