42
 energy: -82.954715981572 gnorm: 0.000841714773 xtb: 6.5.1 (579679a)
C           -5.86258071526392        0.99509397335058        1.26876031194970
O           -4.59003484234236        0.64894543136702        0.72485133324316
C           -4.36486326900854        1.03667378303892       -0.54603667040180
O           -5.19219785839807        1.65080310443403       -1.18583905312549
C           -3.02990787291209        0.62285550159077       -1.02425250559532
N           -2.27045043810574       -0.06196120909078       -0.13296630829841
C           -1.09030457135785       -0.48265276833976       -0.46242382357438
C           -0.25332429407580       -1.26899410663684        0.51323920117785
C           -0.18422724292967       -2.73687031792019        0.08281491224569
C           -0.80282465245427       -1.13025499662375        1.93292189528646
N            1.12546036418612       -0.73893107233304        0.45903991311497
C            1.33960270525462        0.56837692136996        0.56217504960776
O            0.49134866019028        1.42771998716436        0.61116055506443
C            2.86445901963490        0.97775426411651        0.59187048496780
C            3.14330471217807        1.65108727244623        1.93477108021390
N            3.09326454332305        1.81977829214453       -0.53069649057670
N            3.94331732562677        1.24164445209066       -1.31788256889671
C            4.30691071470218        0.08383365543533       -0.76903579679177
C            5.27401483937464       -0.87243620332070       -1.32387406014151
O            3.70209026761048       -0.13790093688118        0.37906194863401
N           -0.56984730369999       -0.29027393938147       -1.70960074348343
C           -1.20353451518345        0.41610187045164       -2.71102065251614
O           -0.65504945342933        0.57755416982337       -3.78722587042775
C           -2.58088602616439        0.93744862045070       -2.35235843442466
O           -3.21938828489383        1.57483578102400       -3.19078112116705
H           -5.86922728095768        0.64189651099943        2.29768637397096
H           -6.66237537077893        0.51204534156271        0.70071050858604
H           -6.00743656873445        2.07855114028928        1.24235198833893
H            0.24521793178502       -2.81991299347429       -0.91377567255260
H            0.43372070206227       -3.29693463879776        0.78128437199468
H           -1.18612544575293       -3.16352295132054        0.07614407606203
H           -0.16182326201278       -1.66407538698170        2.63028379800472
H           -0.84762280894538       -0.07933521132556        2.21551266195914
H           -1.80719332350963       -1.54915842789985        1.97170814668071
H            1.88694568908238       -1.39055752853182        0.52370932968936
H            3.00203981239635        0.92734062512219        2.73356396365330
H            2.45301013641573        2.48289840205626        2.05985423697955
H            4.16941579857403        2.01061690188244        1.94645903198747
H            6.27133838992125       -0.62513272475036       -0.95302197140195
H            5.03623118188819       -1.88208417628557       -0.99831167218588
H            5.28804779016511       -0.80843051193212       -2.40979048630949
H            0.34148381655046       -0.66246990037727       -1.92104127152369
