16
 energy: -33.374567687404 gnorm: 0.000467731218 xtb: 6.5.1 (579679a)
C            2.36330543610481       -0.18861413317969        0.08437721749282
C            1.00982586745857       -0.74382308185282       -0.04731271579866
N            0.64863603833408       -1.96224501073580       -0.21426654589423
N           -0.70759496267649       -2.01945900558067       -0.28302117024100
C           -1.18199621694179       -0.83572397308453       -0.15905157236134
C           -2.58875868510358       -0.36514728993423       -0.16210382355663
O           -2.88118315234846        0.78730488306179       -0.03744879204276
Cl          -3.71245406435362       -1.62455336093028       -0.35613544378900
O           -0.12371821491465        0.06883390674018        0.00104968005123
C           -0.22036055346519        1.52141074155101        0.17671232931514
H            2.47228553697719        0.32562959434358        1.04001142057490
H            3.08209477222021       -1.00449491283127        0.02496154887252
H            2.55959921818804        0.52972102556346       -0.71264917822885
H            0.79600053998094        1.88844395908806        0.27657912186188
H           -0.80541145844179        1.70014785803776        1.07649663931825
H           -0.71027110101847        1.92256779974330       -0.70819971557444
