20
 energy: -38.277990536836 gnorm: 0.000437655428 xtb: 6.5.1 (579679a)
C            4.14452596010207       -0.02411113655681        0.15307448677372
O            2.78553200920383        0.30574383968414        0.00825485637249
C            1.88562118098897       -0.79094400187147        0.31227654941919
O            2.39341510271343       -1.90546716006594        0.67497952148710
C            0.57660570378776       -0.47336947638971        0.16103199635749
N           -0.55102709316802       -1.31498541140485        0.37834477615945
N           -1.57726613221491       -0.52353739989709        0.10281082007780
C           -2.91371455520350       -1.05746717623226        0.20993916291377
C           -1.25989048747199        0.69778845626928       -0.26955293978928
C           -2.17752708623471        1.81256512729615       -0.61814298781974
O            0.10236614397747        0.85329090336536       -0.26363477575167
H            4.72893539569271        0.86688417802129       -0.09238625961227
H            4.38633756821490       -0.33125140171481        1.18197936712901
H            4.44466500851975       -0.83935783063114       -0.52281051911594
H           -2.85097502574082       -2.03053626882300        0.69235920908102
H           -3.53412006528652       -0.38708262644771        0.80264467372104
H           -3.35155516307633       -1.16675317451822       -0.78236749190140
H           -2.90841915314300        1.50021043480135       -1.36602271762256
H           -2.72882690019507        2.16860983854278        0.25633162606987
H           -1.59467941146613        2.63976928657259       -1.01911035394914
