42
 energy: -82.973010971223 gnorm: 0.000223229808 xtb: 6.5.1 (579679a)
C           -5.39112678240405        2.08567141322506        0.35850593167536
O           -4.05564662361431        2.15002301783175       -0.15745978491685
C           -3.49934391816625        1.01706104096816       -0.66756453832889
C           -3.00303296751522        1.17886809332326       -2.08410287847974
O           -4.01850615670149       -0.19892312094132       -0.28867666946624
C           -2.73657482049536        0.05401147223153        0.26136982695613
N           -1.69753308218724       -0.66655655569591       -0.36546943552532
C           -0.58869074278669       -0.84797762965417        0.23033557731775
C            0.50702452316581       -1.65321659110909       -0.43490053932105
C            0.28863606199678       -1.70739563236179       -1.94911543112246
C            0.47696483446786       -3.05960960284660        0.18493062299735
N            1.78363270832855       -0.99438495193740       -0.13812826485223
C            2.97706125433791       -1.51181289612591       -0.51603435706967
O            3.14463816080028       -2.60601875374191       -1.02401731813076
C            4.10973371432165       -0.60197681157964       -0.21579319072489
N            5.37145766760804       -0.81243836871428       -0.42801505209090
N            6.03448752982714        0.29295250686701        0.01189865264589
C            5.13719116990852        1.11150017829191        0.46616467872244
C            5.34747486803856        2.44921903606062        1.06070721774555
O            3.89754980058706        0.60613569779881        0.35093837297206
N           -0.34113398657858       -0.41917225915452        1.52136951201613
C           -1.26642266433234        0.17805281042379        2.33339166814505
O           -1.00535634697088        0.50787045722826        3.46821638621346
C           -2.65261540755294        0.35596651309157        1.70882529225034
O           -3.57641902844846        0.75735992639036        2.37793202574560
H           -5.56169772058182        3.02914689919074        0.87543377248145
H           -6.10562796356706        1.97674942919388       -0.46320477810389
H           -5.50524041867595        1.25311948977726        1.05615633573970
H           -2.32549786097601        2.02791050245575       -2.13662549875401
H           -2.49266196043900        0.27616840283741       -2.40833317026211
H           -3.85888821084932        1.36887549239248       -2.72999488111054
H            1.06647110651708       -2.31048631348313       -2.41381070327712
H            0.31760880901856       -0.70140528879002       -2.36371018657617
H           -0.68340351943191       -2.14934532905242       -2.16113981037132
H            1.19142038099321       -3.70908180773160       -0.31652030783304
H            0.72456095179268       -3.00449038310825        1.24338410447356
H           -0.52216362475710       -3.47878094338613        0.07390229118869
H            1.75947557364776       -0.02267907548663        0.12238287946619
H            4.76990494588088        3.19429207937983        0.51453884722177
H            6.40387546489702        2.70445307709990        1.02442322023242
H            5.00625465930942        2.45227339325441        2.09595413205168
H            0.57215862158080       -0.57192761442232        1.92185644806229
