43
 energy: -83.847247761236 gnorm: 0.000555663849 xtb: 6.5.1 (579679a)
C           -3.73321478948465       -0.84924116274244       -2.24546061097046
O           -4.08277139875850       -0.65005903686994       -0.87849188491952
C           -3.71841754972830        0.58157787965246       -0.33725495934746
O           -4.71950178713209        1.55866934125318       -0.40866083285709
C           -5.91868830660536        1.23313788178969        0.28687164380092
C           -2.46669498394850        0.82599268408149        0.15671725932954
N           -1.55642063339605       -0.24245521524865        0.03727441886845
C           -0.36865406427238       -0.10652714011040        0.50363278687441
C            0.59758964906824       -1.28069722703746        0.43017778700835
C            0.64072695196714       -1.96631777735275        1.79945994195613
C            0.16276570781010       -2.26939127626014       -0.65495796119023
N            1.94868964046582       -0.78408133726732        0.14792231077203
C            2.24372410037772       -0.06716348348251       -0.95955982167799
O            1.42785206765896        0.31109945889228       -1.78957002410124
C            3.68340306870531        0.25835774259376       -1.06973619557021
N            4.26564226539362        0.97423375639092       -1.98747489847978
N            5.59279886817046        1.01520655101585       -1.67107492123373
C            5.74033789893449        0.32580105315259       -0.58461108585330
C            6.99206796958850        0.06858526976754        0.16123522623819
O            4.57404770874693       -0.18144170230701       -0.14741235278951
N            0.07814967370129        1.00803986377268        1.12642779061046
C           -0.72542173063251        2.18487327728681        1.28106015660712
O           -0.18926689137185        3.16537738865190        1.85085981600446
C           -2.00746012520196        2.04378188628724        0.76423164019021
O           -2.86971731345342        3.14693063413670        0.88506900121642
H           -4.15022837805337       -0.05967258489345       -2.88266314849044
H           -2.64229011064348       -0.87400977273381       -2.36681871613972
H           -4.14957786426296       -1.81237378436304       -2.54701005539149
H           -6.63471412529515        2.03118213730676        0.08717220438856
H           -5.74152852406536        1.16456391259743        1.36779738011677
H           -6.32965477610176        0.28180299290766       -0.06956600149604
H            1.33022137642767       -2.80825299093667        1.77962504738928
H           -0.35227661590909       -2.33159533828181        2.05842965992494
H            0.96688546013552       -1.26157232117378        2.56294911147569
H            0.12164933027625       -1.77295335620385       -1.62400086451089
H           -0.82968654945445       -2.64917207899772       -0.41557530184905
H            0.86384086691627       -3.09997291322396       -0.70641869773486
H            2.70314086511873       -1.13298351045665        0.71140210392776
H            7.81897586777980        0.58386759192585       -0.32148434100401
H            6.89265352786419        0.41744790942261        1.18875896290860
H            7.19695100669001       -1.00131002086876        0.18885406054116
H            1.00920930783768        1.03809001496678        1.50438113823317
H           -3.66513766186244        2.98262680295902        0.35413122721845
