42
 energy: -82.931140143555 gnorm: 0.000160104139 xtb: 6.5.1 (579679a)
C            6.67047504848368       -0.81284132129122       -0.83825757547591
O            5.31946097191584       -0.53589808386890       -0.46245182277969
C            5.11282403446838       -0.20521590986684        0.81374921974309
O            6.00227330695324       -0.12883321992154        1.62943408720990
C            3.66761387862364        0.04543460795656        1.09860112816332
N            2.81685842220219       -0.01093347444512        0.05663307968084
C            1.51550785228808        0.16937329323992        0.28669344238685
C            0.62201724356959        0.08710058823326       -0.93677708054202
C            0.85795965285418        1.32785332708234       -1.81211348082434
C            0.92279171484306       -1.19733494305388       -1.71885551700888
N           -0.75572840034491        0.07511176147170       -0.45538381395335
C           -1.83677563417915       -0.03033435531440       -1.23908374744053
O           -1.85136573436583       -0.12093914959409       -2.45359706083439
C           -3.08413857378877       -0.03374566010291       -0.41464574676434
N           -3.10569741300194        0.07973339153663        0.93129682505955
N           -4.32085817262339        0.02831454244201        1.32315073806697
C           -5.18072120808807       -0.12970133244423        0.18186353128497
C           -6.11966702043131        1.07191899645774        0.05041138851238
C           -5.93831242982810       -1.45745123607376        0.26407740502646
O           -4.27503322060289       -0.15868545823895       -0.92235063131793
N            0.94329357393164        0.41090333661205        1.44779432571452
C            1.72891632302452        0.50777610228682        2.56167889071892
O            1.30149432257703        0.74798740908494        3.69205132600291
C            3.17639670737851        0.30530482550541        2.36747014304627
O            3.92704371083205        0.38821112477961        3.45879150143282
H            7.03229011919219       -1.69884996576279       -0.31066048961618
H            7.31156740051601        0.03838681319291       -0.59647712377638
H            6.66555309907076       -0.98986506332289       -1.91178401028120
H            1.91026608515730        1.37162668231785       -2.08871731742497
H            0.59569583705396        2.22870645675090       -1.25972558626707
H            0.25112001397882        1.27112838421244       -2.71387406258692
H            0.34539951308885       -1.22556862306546       -2.64068346150809
H            0.67501363009155       -2.06786387276430       -1.11365789528161
H            1.98479757230397       -1.22073449791652       -1.95865111535180
H           -0.86263742226532        0.17587152527760        0.55237471137388
H           -6.76339766240767        1.11619742141201        0.92506907449140
H           -6.72319103300354        0.95743508172022       -0.84655604959988
H           -5.53074133384882        1.98393092699579       -0.01873114713127
H           -6.58834361695462       -1.44150725729864        1.13495453683182
H           -6.53196607093240       -1.58597021437978       -0.63756744274807
H           -5.22684544723390       -2.27544984732138        0.35291753309462
H            3.33879035948640        0.56288388751077        4.22159029068907
