43
 energy: -83.122865473693 gnorm: 0.000747450176 xtb: 6.5.1 (579679a)
C            1.86920088973289        1.89183870507542        3.72136381835753
O            1.81060839167471        1.21345514110160        2.45459793761547
C            2.62299067597551        1.63648038654916        1.50861901442275
O            3.41118543737597        2.53724555553637        1.61463584050360
C            2.45096803165555        0.82547368918210        0.23430845229410
C            3.31917121731042        0.98597196664271       -0.86924082139006
O            4.29751114747460        1.81692444086037       -0.89154391380420
C            3.15421544728581        0.12864203750771       -2.07492332764049
O            3.92039706786501        0.22765114934247       -3.00938161367142
N            2.13002775844753       -0.74783035465374       -1.98746263519777
C            1.18953161648246       -0.81918918476014       -0.91501972029054
C            0.97681967443874       -2.27523372085882       -0.48840583460614
C           -0.25494965078635       -0.18113196391921       -1.48104090607719
C           -0.08330790811116        1.32865837625828       -1.60246115137102
C           -0.54313770043853       -0.79416351276379       -2.84545954732625
N           -1.25430655388140       -0.45173043441384       -0.51171956691960
C           -2.07991857176305       -1.55058086122968       -0.47652261241405
O           -1.99860052976196       -2.50085598196262       -1.22512239560934
C           -3.10228840174102       -1.44606806091109        0.57734922892908
N           -4.03043414523136       -2.30843285429012        0.86332861331785
N           -4.75359316716103       -1.78374061101670        1.88138762244690
C           -4.22953868153535       -0.62762854392792        2.16180296093397
C           -4.66770183243926        0.33613051677922        3.19196526448675
O           -3.17816873077690       -0.35640017937289        1.37214829646000
N            1.47923158042378       -0.04958555473610        0.19266220185268
H            2.90997625713844        2.02382648822193        4.02485748579782
H            1.33762816300013        1.26136963914848        4.43024897905236
H            1.38305088653651        2.86530457099454        3.63394048339469
H            4.78873076312652        1.76981944735593       -1.74327172466515
H            2.03114022360689       -1.39837963509771       -2.75438709190262
H            0.54481654958159       -2.86094135394179       -1.29526146077742
H            0.32352363263766       -2.30030559872388        0.38003719045719
H            1.94737444038149       -2.68874291874019       -0.22024411839318
H           -0.01961270551172        1.79631190869609       -0.62221340680308
H           -0.94820178357311        1.73091290261076       -2.12898972661931
H            0.81101079319201        1.57046636931849       -2.17382321410751
H            0.09826538290582       -0.32764065846068       -3.59035766860794
H           -1.58345308442093       -0.59119644054923       -3.09812350011873
H           -0.39147276195040       -1.86979689267191       -2.87069574204814
H           -1.37512759280627        0.23888027772822        0.21558287326466
H           -4.86451809243864        1.30433401546851        2.73219754651804
H           -3.88090180625805        0.47132506144965        3.93353227223022
H           -5.56814232766228       -0.03144632882341        3.67896061802480
