42
 energy: -82.947334850462 gnorm: 0.000859062174 xtb: 6.5.1 (579679a)
C            6.46116346122544        1.56358198175233       -0.40644248812547
O            5.04167306851149        1.70411720608835       -0.43501445705338
C            4.33241999820823        0.62046065766949       -0.09874532866552
O            4.86065647502401       -0.42748700011705        0.22277483167487
C            2.86675509911777        0.81107342607254       -0.15556964434095
N            2.17496609167756       -0.32194643465828        0.14030598241344
C            0.88091597227036       -0.32581716610831        0.11900938668690
C            0.14334890429269       -1.61628814899219        0.41762476949228
C            0.57235107089275       -2.67787667487454       -0.60412696931633
C            0.47960466867665       -2.08133659217780        1.83642539989883
N           -1.29620544881166       -1.39179444503509        0.22250767674696
C           -2.18550669595132       -1.04848519383223        1.15095380310404
O           -2.05968264300787       -1.01366047917415        2.34892730892855
C           -3.55862914740056       -0.56963621517241        0.49773242252829
C           -4.72221597175249       -0.92983259827006        1.41088155065488
N           -3.68531618560058       -1.06531310775374       -0.82774333305396
N           -3.57953146695459       -0.07852855723600       -1.65786917327437
C           -3.42162219876710        1.05297314975193       -0.95329335923016
C           -3.19869943923924        2.39123924919685       -1.50658238012719
O           -3.41776963551000        0.83400080513477        0.33732366856917
N            0.16329137710161        0.79173528655443       -0.18674273764117
C            0.71711010264962        2.00010614291573       -0.54476542008292
O           -0.01255214174010        2.92957937907370       -0.85731863649565
C            2.22878911529296        2.04731207752945       -0.51002347599617
O            2.80369818343501        3.10417945899213       -0.77937675723723
H            6.80054039504359        1.34166523668169        0.60858447895407
H            6.77575792059269        0.75629137960258       -1.07278393019745
H            6.87798368645771        2.51109042298850       -0.74251383352670
H            1.65251742042639       -2.80829810068262       -0.55129250190941
H            0.30439132341605       -2.36241250038467       -1.61102922762802
H            0.08190811741071       -3.62368590938578       -0.38357348543450
H           -0.11978574984573       -2.95037730653481        2.09816601066522
H            1.53535346719365       -2.34860191374000        1.86755321788247
H            0.29943603307946       -1.28902878944046        2.55965817377364
H           -1.61988497629814       -1.41549390635597       -0.73466648629283
H           -5.62921904862446       -0.45987754154197        1.03868007720773
H           -4.84352946957615       -2.01033984478458        1.42001621837824
H           -4.50437974176927       -0.57514771535114        2.41669056884912
H           -3.48892561811935        2.42493607025725       -2.55345607888350
H           -2.12883489375132        2.62682883076973       -1.42336369810509
H           -3.73986982160055        3.13692849321892       -0.92535790298297
H           -0.84247265766977        0.74316688736255       -0.20271324079603
