42
 energy: -82.942632002438 gnorm: 0.000426005608 xtb: 6.5.1 (579679a)
C            6.24192257289928        2.38080545838204       -1.16450490872787
O            5.34556993237168        1.65953721073911       -0.31839002723112
C            4.30855220223476        1.07453660987265       -0.91919221688424
O            4.12329227973963        1.13587434792852       -2.11778553473486
C            3.40488966565294        0.34340017758867        0.00676857220580
N            2.34387385136265       -0.21072392773510       -0.61342001718120
C            1.45427988240525       -0.89573497095261        0.04941088910328
C            0.28150700617621       -1.49936584709004       -0.70459973127283
C            0.24225777615349       -3.02294254058416       -0.53914345835973
C            0.38405010991329       -1.13333959115495       -2.18572340439769
N           -0.96288644310926       -0.89097003281942       -0.20268889855183
C           -1.54791317095191       -1.15903557570770        0.97893202577907
O           -1.11699561900317       -1.90513464661615        1.84768895548503
C           -2.81922931312736       -0.42205432107735        1.16643174609004
N           -3.59415363271177       -0.49569248965193        2.25976095791988
N           -4.60761969056684        0.27123924566988        2.09488902535608
C           -4.52097223108801        0.90385582888891        0.80548304931961
C           -4.42006991708595        2.42286634911501        0.96307026437021
C           -5.70013163598477        0.48526688889137       -0.07551721744002
O           -3.30233143402825        0.39234127022976        0.25492770920254
N            1.55108851334502       -1.08627018536707        1.38590069335539
C            2.55996262057150       -0.56135161247334        2.17379142909447
O            2.56463533067727       -0.75539526098183        3.37390124855145
C            3.61252582219149        0.23618131012514        1.42911208437686
O            4.54663265502693        0.73151497884359        2.05545847538774
H            6.68839748759576        1.70872512071334       -1.90153177150001
H            7.01245705299646        2.80028338793834       -0.52050691720490
H            5.70783450052817        3.17918608309207       -1.68546783689406
H            0.22656613284806       -3.31111950039014        0.50920270219595
H            1.12416901673091       -3.45448045185822       -1.00988439104066
H           -0.64836412975776       -3.41466310880814       -1.02639181381482
H           -0.46996605753371       -1.53680669809096       -2.72539915181016
H            0.40863330792488       -0.05154887800698       -2.30713916337125
H            1.29980263578612       -1.55036434453682       -2.60198828201992
H           -1.43038297703480       -0.24987206348258       -0.82334794445255
H           -3.54012949721089        2.66638451223073        1.55473939527115
H           -4.33796951311251        2.88117904134796       -0.01910658657567
H           -5.31248844241530        2.78715642219512        1.46555175875570
H           -6.62530885333870        0.83048577547903        0.37916433429060
H           -5.71697901087014       -0.59871873478204       -0.16453692708014
H           -5.58531560439916        0.92926946917838       -1.06106785953447
H            0.82630581820190       -1.61450370629254        1.86468974397047
