42
 energy: -83.000659166381 gnorm: 0.000924570751 xtb: 6.5.1 (579679a)
C           -6.10232509364318        0.39848716182573        1.31616250699678
O           -4.75459107576791        0.87238310951608        1.30931193052437
C           -3.86678146003291        0.28995174959088        0.52952521315138
O           -4.36061184912684       -0.72211098042367       -0.16411111707683
C           -3.64703906254819       -1.49204260596538       -1.12983060144209
C           -2.55776048160361        0.77941431104830        0.50743549964648
N           -1.63787951007396        0.10958731759023       -0.29705043007483
C           -0.42774495313867        0.51397630791057       -0.36825641806876
C            0.58371807606271       -0.18194587237886       -1.25537056882438
C            0.76692415249115        0.63515213098830       -2.53806342233786
C            0.14631464823325       -1.61278356252193       -1.57680866653474
N            1.87038611181242       -0.20541972467234       -0.55589816746102
C            1.99054540493402       -0.73949013053602        0.68010422641267
O            1.05699685688825       -1.13090095715351        1.35980636235150
C            3.39345992853781       -0.76534998314050        1.16043510151585
N            3.83654260888704       -1.19284566837728        2.30154271312101
N            5.18631573586651       -1.00344334129935        2.29511375779674
C            5.48376500106804       -0.47158169064084        1.15038418969884
C            6.81724406490036       -0.07011799822492        0.65314480712377
O            4.39430582118281       -0.29457921462199        0.38512941312513
N            0.02906988333619        1.62898496336911        0.29715981760897
C           -0.73631654082682        2.38994241431206        1.13685089351865
O           -0.27193434202219        3.36424481267255        1.70173781521840
C           -2.17839048109964        1.92945016681784        1.29603426476948
O           -2.91887087351257        2.54800737143175        2.05273234853758
H           -6.53602889576960        0.47636875555100        0.31751978950303
H           -6.64354161003362        1.03564544529298        2.01354655658485
H           -6.13748415871072       -0.64125830128843        1.64747416307679
H           -3.24660369225834       -0.84944953841114       -1.91482097002351
H           -2.83280313344654       -2.04393964214898       -0.65831126918681
H           -4.37582448245740       -2.18583733972089       -1.54880996215891
H           -0.18573086746562        0.71878160896436       -3.05850127089043
H            1.12992738352293        1.63373866318446       -2.30079738210572
H            1.48422687559378        0.14338494939076       -3.19215572210786
H           -0.75249819781353       -1.59015671815630       -2.18957277095148
H            0.93662416358899       -2.12210206225656       -2.12429812839739
H           -0.06374271010821       -2.15791238570445       -0.65721888766718
H            2.69886101806608       -0.00276128196884       -1.08754540486296
H            6.82041235748972        0.99529719487292        0.42246475580969
H            7.57135266542912       -0.28434235873086        1.40713225815655
H            7.04937614094064       -0.61216178139211       -0.26307520112136
H            0.98813657262950        1.90973670540347        0.16171597704684
