42
 energy: -82.993616012704 gnorm: 0.000843586874 xtb: 6.5.1 (579679a)
C           -3.42314248541097        1.57096950751536        1.61234413959011
O           -4.32027463284292        1.16941144107318        0.57813443003419
C           -4.04040694593545        0.32099833396170       -0.39562472724282
O           -5.04576843023616        0.12108801070554       -1.22128333095820
C           -6.28093814285781        0.80809523299922       -1.00707274133199
C           -2.83642798562714       -0.35470041064326       -0.62099909746675
N           -1.79390028066280       -0.12319499030773        0.27305076525431
C           -0.66794284557429       -0.71054364970594        0.12522297227708
C            0.46258692460587       -0.50380846062093        1.11145165408792
C            0.21931737417026        0.73813193550226        1.97107741385284
C            0.57499552358838       -1.76303417991281        1.98382166172016
N            1.68762157927895       -0.32448732114627        0.32199201895846
C            2.91209808440545       -0.17950844801495        0.87884210516164
O            3.17822519686910       -0.31091542681650        2.05893318709609
C            3.92390808413433        0.14826177525693       -0.15860681493362
N            3.69744740129124        0.30707316176696       -1.42815003554270
N            4.89429117613658        0.60520309757482       -2.00643833826036
C            5.77490499916929        0.61166104984902       -1.05158502187928
C            7.22332665753208        0.89267306738389       -1.15936810714972
O            5.22323682146109        0.33024713165164        0.13795124702833
N           -0.42041612413801       -1.60189223497812       -0.89583212621287
C           -1.33299358496939       -1.93834033698103       -1.86079251871686
O           -1.05233798360694       -2.73476032287219       -2.73708763325676
C           -2.68601898957687       -1.25223131385806       -1.74339157136299
O           -3.54688947913932       -1.49436174221981       -2.58140525284712
H           -3.11071817796330        0.71056285461242        2.20569705003121
H           -3.98444701028114        2.27032787180014        2.23213007526754
H           -2.54610283111849        2.06382425239519        1.19079023917583
H           -6.12745509829415        1.88758292949012       -1.06304270519637
H           -6.69441975648911        0.54884809332228       -0.03047585545277
H           -6.94997260535352        0.47948133661365       -1.80053469810620
H            0.11659662026804        1.61776851801851        1.33794091373757
H           -0.69454925010333        0.60647709638097        2.54671607114831
H            1.05179612024422        0.88425196431494        2.65699069925299
H            1.33374966143261       -1.62545065956301        2.75144996117135
H            0.84043554053381       -2.62194918733010        1.36955897844014
H           -0.38422520045051       -1.95125791654892        2.46379075394335
H            1.58588982205820       -0.04953363649047       -0.64424631807015
H            7.46014916888656        1.82047614163087       -0.63707467865620
H            7.79528067379423        0.08932412111630       -0.69526147825230
H            7.50147737046096        0.98678711485158       -2.20657202341853
H            0.48201404030736       -2.04955580177677       -0.94652626291636
