42
 energy: -83.656250747422 gnorm: 0.000708186245 xtb: 6.5.1 (579679a)
C            6.75673924266598        1.51539657934190        0.73968297450934
O            5.44950900860724        1.59196534562836        0.18262129287572
C            4.66598777841125        0.50968471818339        0.35504925944035
O            5.06340275977246       -0.47235604761917        0.95446504727466
C            3.32013619479960        0.64753990600535       -0.23937307057005
N            2.49597101073478       -0.42747141994883       -0.03603976229420
C            1.27555456704350       -0.36939636262379       -0.52246109750996
C            0.37490485834009       -1.58698782272893       -0.31953552156163
C            0.96702455559815       -2.51803711500077        0.74483512815644
C            0.27238394229463       -2.31048248005194       -1.67776190752321
N           -0.92849743997980       -1.08726905739144        0.10748682023606
C           -2.03720830875675       -1.91865139076548        0.22859238188236
O           -1.93366951466153       -3.16614085911213        0.27450284911395
C           -3.27027942176943       -1.22996230811689        0.35974239614843
N           -4.46785357852644       -1.76629860964233        0.52870803706474
N           -5.39107536536814       -0.84960506395517        0.61291731465248
C           -4.72648380666056        0.45810245843214        0.48504561755390
C           -5.27824637374838        1.20256231887511       -0.74349449306953
C           -4.95422271140177        1.28256908955180        1.76499702877814
O           -3.34429537022150        0.18058980531435        0.31768326325652
N            0.73249463745586        0.63457764436834       -1.21759281492245
C            1.48741697362870        1.72405789539102       -1.47414471917689
O            1.10062111849029        2.71901074702341       -2.12467002991047
C            2.85569622395924        1.72519328748293       -0.94772451079165
O            3.56563590150231        2.84470123735375       -1.22542348800801
H            7.31493201331944        0.68653590166905        0.29543388349135
H            7.25198118238084        2.45874177593356        0.51703415453991
H            6.70422512224696        1.36823178553972        1.82244329631819
H            1.97935129992016       -2.80299914404810        0.45854694298512
H            1.00932697482057       -2.00356020067239        1.70536756735360
H            0.36329207367769       -3.41826286929188        0.84999067194455
H            1.26751470897567       -2.60219883791145       -2.01280394018453
H           -0.34602288237932       -3.20340170485666       -1.59353482046136
H           -0.16464462294926       -1.64018626782621       -2.41811230871675
H           -1.12464098686993       -0.14248889840285       -0.20994414337344
H           -5.11002852356933        0.60051213721513       -1.63528431328483
H           -6.34734386737650        1.36369292386837       -0.62175741064861
H           -4.78023142582061        2.16346925784892       -0.86199853291979
H           -4.45812750685828        2.24873493396171        1.68902426417112
H           -6.02075014055196        1.43620764424144        1.91518506076910
H           -4.55043300532122        0.74103991576090        2.61931306279034
H            2.95995170414826        3.41264215097650       -1.74970243037906
