42
 energy: -83.615618383257 gnorm: 0.000351103645 xtb: 6.5.1 (579679a)
C           -4.44741228761858       -1.92019758712484        2.13331028389501
O           -3.82373037391070       -0.66839529599739        1.88517739946283
C           -2.84222275630438       -0.66796152240890        0.94200103043134
O           -2.50969669418771       -1.69861585442283        0.37201794889309
C           -2.35067070880687        0.72946734925036        0.61224932391194
C           -2.32599502568934        1.64452806080650        1.83891579161452
N           -1.01885450917905        0.65656679917440        0.03505402250534
C           -0.92623423963684        0.31491227884394       -1.19854417967165
C            0.45177117148921        0.05920642138788       -1.80244411092663
C            0.69450997756377        0.99030866497028       -3.00001960820792
C            0.52905982179736       -1.41515775613270       -2.23853968449898
N            1.42933241966690        0.34335422173567       -0.76145398855066
C            2.76943672807770        0.02905541615135       -0.86633087543617
O            3.33125183559407       -0.23496405461187       -1.95046667336639
C            3.42975158643193        0.09257802439007        0.40791258696336
N            2.85673284597813        0.36322119623175        1.58162929530148
N            3.84496226080174        0.28196932017653        2.52421203598028
C            4.93941066427248       -0.02467812913506        1.90841241190846
C            6.27881049089543       -0.23466830213396        2.51161997371299
O            4.77503265899908       -0.16334209409427        0.57148460022579
N           -2.00238191189665        0.13499300460881       -2.00873231266592
C           -3.26979017463055        0.76365788336660       -1.72847734015654
O           -4.02924266232070        0.94622043457676       -2.72675164320190
C           -3.46339235089005        1.15688062761406       -0.39056307984337
O           -4.47880033943916        1.79018166792311        0.06667131217366
H           -3.73304986280417       -2.62718401401818        2.56719477766995
H           -5.25779558954946       -1.74142507401578        2.83848361268681
H           -4.84792511041818       -2.34851388065460        1.20886265731583
H           -3.33676671162176        1.79362225604732        2.21736205060797
H           -1.71023604910435        1.21203157890864        2.62683826281026
H           -1.90902171853332        2.61229796933884        1.55969218204437
H            0.62683824973940        2.03053079116592       -2.68251614944164
H            1.68586267419984        0.81149120915825       -3.41344009590741
H           -0.04409940636337        0.80880224052775       -3.77875130571113
H           -0.23391314022509       -1.62126437013604       -2.98729442748600
H            1.50479790776629       -1.63214628813280       -2.66972208740465
H            0.36477407127420       -2.06591026314183       -1.37964233923281
H            1.04412697604174        0.40186209183252        0.17986906189037
H            6.63594083581226       -1.24229196701984        2.29777797006476
H            6.99868087229037        0.47154569143242        2.09754658955950
H            6.21875111331312       -0.09633389465742        3.58839828091324
H           -1.84860053887194       -0.03623385178646       -2.98900356082683
