42
 energy: -83.620839081123 gnorm: 0.000942899277 xtb: 6.5.1 (579679a)
C           -5.87182080506460       -0.34916652991031       -0.81930075063924
O           -4.83112234578517       -0.58883913948282        0.07646970398431
C           -3.81664467315999        0.61143526317541        0.23378623849325
C           -4.35916898899151        1.38055717126852        1.49269864006277
O           -3.75209617208242        1.34577201890308       -0.82600701443681
C           -2.49062108718026       -0.15251527239619        0.60151149987231
N           -1.54285114737367       -0.06704717834240       -0.37582394366196
C           -0.40057846215465       -0.65055488777384       -0.25295542192865
C            0.63128909700608       -0.59787913634174       -1.36140283473524
C            0.33230389768994        0.57023307746280       -2.30501893229498
C            0.63394732309360       -1.92109959056888       -2.13739170521530
N            1.97861902700140       -0.45184836571243       -0.78058719615012
C            2.38208527112282        0.60461587411626       -0.05148284013361
O            1.69238973122955        1.55378911087711        0.28040364215785
C            3.81692034571315        0.46326927324093        0.32947683688740
N            4.58245521005296       -0.55412981726768        0.06293906242149
N            5.80877590166574       -0.27300795365244        0.58935572081421
C            5.71342734802227        0.89756041573001        1.14197781152253
C            6.77523287394793        1.64790392108843        1.84792553311306
O            4.48130571349369        1.41400189669577        1.01445121733409
N           -0.09699141752963       -1.40674475506804        0.85906681475424
C           -0.95859183888167       -1.56396057074599        1.91814288612811
O           -0.59562509669886       -2.26880143106394        2.87820395360159
C           -2.27600726850797       -0.86559788225463        1.79869906495293
O           -3.08986736010977       -0.96656138227914        2.76812799106395
H           -6.73463506222064        0.15739726825749       -0.34643888571571
H           -6.22994289505914       -1.30808634939217       -1.21946821077353
H           -5.55189054274742        0.27157930453823       -1.67613886977591
H           -4.66962887842010        0.70688312855534        2.28891381383509
H           -5.21313528594480        1.98088281685798        1.17808426917153
H           -3.58058966488608        2.04935635989109        1.86102649382516
H           -0.66285665327230        0.43555041234813       -2.72902582164514
H            1.06577441372965        0.60163668192848       -3.10793161617168
H            0.35413935384203        1.51443103366748       -1.76223388134991
H            1.37440657690399       -1.89200511276592       -2.93472628888912
H           -0.34815219053472       -2.09156385552304       -2.57645122743357
H            0.86965784917211       -2.74910664757862       -1.47092277337417
H            2.67252189236855       -1.13295456067747       -1.03783251555682
H            6.92030066686705        2.62082357933798        1.37914085877695
H            6.49184919814055        1.81248447129611        2.88777996134014
H            7.70408701760111        1.08443949843995        1.81049063281676
H            0.79132812792660       -1.87313015888246        0.91402908297095
