13
 energy: -19.066501990631 gnorm: 0.000935845492 xtb: 6.5.1 (579679a)
C            1.69808415258604       -0.19177802040778        0.11291717855900
O            0.54817258050581        0.67381540806057        0.34252162930327
B           -0.86108520041472        0.40344220157768       -0.05754323422410
C           -1.14323797260595       -0.90494653231624       -0.83152378481769
O           -1.73664635249092        1.32252177442437        0.29262512973046
H            1.74524268162326       -0.41180041063763       -0.95221579180313
H            2.58377693578780        0.35043382525426        0.43161465193456
H            1.56912487766677       -1.10356327568143        0.69504945617124
H            0.74911454630719        1.45551234951060        0.87296881051049
H           -2.18616325772349       -0.96015288046536       -1.14099671773963
H           -0.51278792520310       -0.98355519579805       -1.71678148583253
H           -0.92288269707558       -1.77349453994016       -0.20978257024583
H           -1.53071336896312        2.12356529641930        0.77076172845399
