42
 energy: -82.946527621885 gnorm: 0.000273506097 xtb: 6.5.1 (579679a)
C           -7.06269425340063        0.52528836404091       -0.68136327185866
O           -5.82467839943728        0.60848764707985        0.02512876478087
C           -4.77403775125975        0.02136925428661       -0.55009252576562
O           -4.84424819710089       -0.54764063900282       -1.62085473942854
C           -3.51959236400600        0.11491223702040        0.24069273571095
N           -2.49038225925607       -0.55956886136583       -0.31249119187112
C           -1.33117689360420       -0.60790473100147        0.27673920166241
C           -0.21195953563561       -1.41661584579788       -0.33382727370547
C           -0.46121008517036       -1.62878219115505       -1.83025887269113
C           -0.10027191190329       -2.75558686491482        0.40276869264468
N            1.04536427449006       -0.69252278344667       -0.13907326458025
C            1.16497199905569        0.60590464397960       -0.49388189163012
O            0.25022081487295        1.30308355475438       -0.89984803765741
C            2.54343821373895        1.11994568258753       -0.32790349820381
N            2.94430146023511        2.36942993044732       -0.61006590939244
N            4.20597414726594        2.45121497672209       -0.39860920680881
C            4.69870235721423        1.17338033786550        0.04127612829349
C            5.69579716738706        0.60979507064684       -0.97457948069236
C            5.29300113399974        1.27676122725411        1.44714652119302
O            3.52975005228002        0.34786000011766        0.06998671167622
N           -1.10463501764841       -0.01413593570190        1.47623471182454
C           -2.04211206178959        0.74426788639318        2.15406509560507
O           -1.75891623984708        1.26170224199813        3.21678419730663
C           -3.39417086862024        0.84860600261889        1.47485419726029
O           -4.27727378438027        1.52534916891472        1.99710638169045
H           -7.32262556325959       -0.52021522542496       -0.86454750117085
H           -6.98831252114911        1.04899424388110       -1.63768652154153
H           -7.81542865749093        0.99587108918978       -0.05180409604630
H           -0.54588628420020       -0.66747998182661       -2.33550761669664
H           -1.38905558133189       -2.18275169055263       -1.96485673696633
H            0.36268080665436       -2.19196926873481       -2.26177896216190
H            0.71313468991470       -3.34081795285259       -0.02053877638736
H           -1.03006594058302       -3.31232670337054        0.29698251539306
H            0.09582215629332       -2.58779406060784        1.45989093317144
H            1.86444991781055       -1.21066510363745        0.12591401306298
H            5.21708541282274        0.54173977505098       -1.94920587780788
H            6.00987399435565       -0.38015945966297       -0.65394521358099
H            6.55792863757138        1.26940312976573       -1.03359313394717
H            5.58616450677546        0.28547965526067        1.78330495301710
H            6.16281040758090        1.92854339187410        1.42037296968709
H            4.54833033773905        1.68578921943319        2.12659721532119
H           -0.20106931698530       -0.11302843212647        1.91046966129739
