21
 energy: -31.458906573939 gnorm: 0.000800402230 xtb: 6.5.1 (579679a)
C           -2.58882748692156        0.90706684773365        0.46688293782819
C           -1.62735658462006        0.09566097371775       -0.46229237610653
C           -0.23233446238352        0.69070880436259       -0.47638599013755
C            0.83690170420337        0.10551228199761        0.15212688998330
C            2.17152328876106        0.82593027941200        0.15368127881439
N            2.98313632072680        0.42657606220061       -1.01394115707563
C            0.77162076024231       -1.17675509848139        0.73424029382249
C           -0.43813165033286       -1.90124109409038        0.58553899284248
C           -1.50588660462731       -1.32765983715786       -0.00901445953989
F           -2.65596990316934       -2.08857126318558       -0.21968272455816
H           -3.58115897413204        0.45309647958581        0.47681036161644
H           -2.19737214798616        0.92302738962349        1.48465710408446
H           -2.67447032115061        1.93424119895449        0.11010300410519
H           -2.08166611704707        0.13558895389275       -1.47338520884843
H           -0.13066872641124        1.65782020334467       -0.96341357497333
H            2.02488620957935        1.91263261457466        0.09771474125817
H            2.72130611790235        0.60904690704713        1.08523607324386
H            3.21805206685934       -0.55524795734792       -0.91860688770446
H            3.85334911131744        0.93724774759784       -0.97698595311468
H            1.63119028062210       -1.62864018102155        1.21356336122725
H           -0.49812088143174       -2.93604031276049        0.91477729323289
