47
 energy: -79.486212095766 gnorm: 0.000672271432 xtb: 6.5.1 (579679a)
C            2.28501555117421       -0.36403385094232        2.56399981884452
C            3.57630059289027       -0.58910369020781        1.73478025251809
C            4.49921234597947        0.55476495834568        1.85144420688357
C            5.10609611981891        1.06614290485926        0.74690148276158
F            5.94386136425484        2.08735066537898        0.87219396671894
C            4.86509273244770        0.56835700724252       -0.54221258100976
C            3.98803218250350       -0.49559424138278       -0.71579669456389
C            3.34033571949188       -1.07651707739240        0.35897744350420
C            2.36063483193444       -2.19119357135446        0.12153380400291
N            1.08160129977637       -1.56974400286646       -0.17920187273546
C            0.79517177375182       -1.13213423678180       -1.42668893247686
O            1.54186110658324       -1.31395321889735       -2.38596108702681
C           -0.50938566216807       -0.45225829068132       -1.53426526381082
N           -1.17847098435342       -0.22766569051800       -0.36728107128318
C           -2.33295676168307        0.36959580664208       -0.36674447723422
C           -2.97460682524163        0.55958446937347        1.00187828840030
C           -1.93569841098941        0.24706153137266        2.09135233526277
C           -4.16914465427054       -0.39125081888674        1.15612301323374
N           -3.42227089299190        1.93898852544469        1.15813250891358
N           -2.93067489349178        0.76182277592049       -1.53071315100970
C           -4.25569321862445        1.38959237540899       -1.59568728306672
C           -2.34437881718827        0.56743603803428       -2.78423621777929
O           -2.92510975898841        0.90617899242951       -3.80483746203420
C           -1.02732623261819       -0.06107476246417       -2.74154736537021
O           -0.40795223978820       -0.23861845643034       -3.91143873811692
H            1.72093368878515       -1.28974353009706        2.63917654114171
H            1.67497439947774        0.39486774356303        2.07937930663863
H            2.55183102669656       -0.03063071166021        3.56456767867620
H            4.08001372587060       -1.42749196892368        2.25384612612131
H            4.68086796428545        0.97129592376975        2.83474093603784
H            5.36428791144646        1.02411689914162       -1.38967107704100
H            3.79744171246789       -0.87013672921048       -1.71591698746744
H            2.24255866420268       -2.82876470905566        0.99670774624212
H            2.66096362524811       -2.78618822651647       -0.74530124561715
H            0.48178811663821       -1.28198314095952        0.57995671253942
H           -1.05343756695750        0.87024289571480        1.95782759215041
H           -2.36523591580064        0.44773954384661        3.07119069859772
H           -1.63343010833230       -0.79733833224704        2.04199306707808
H           -4.96307683995999       -0.14393807473205        0.45425086710227
H           -4.56358531010885       -0.31404340230357        2.16811604021726
H           -3.84752840676195       -1.41697240447711        0.98141068840256
H           -2.62260685652230        2.55555268951078        1.17867533594336
H           -3.91650503575239        2.03188915799251        2.03411391931965
H           -4.49346756695023        1.85277911857679       -0.64306925095631
H           -4.23623460847895        2.14933880502182       -2.37825960872139
H           -4.99908288834613        0.63290110531630       -1.84942842670934
H            0.46898500065328       -0.65722779392035       -3.76404558321440
