47
 energy: -79.545905423018 gnorm: 0.000762113927 xtb: 6.5.1 (579679a)
C            5.73210235596435        1.32880582710717       -1.05927076965495
C            5.18067537525315        0.51244227797470        0.07589134362656
C            6.03949903712200       -0.24764892612526        0.86383984725707
C            5.52185941014175       -0.99225179322962        1.90791300083134
F            6.36238185226637       -1.71852275308083        2.65531581292525
C            4.17294251749717       -1.01387163385682        2.20801566125970
C            3.31912149598398       -0.25527421514656        1.41988938978566
C            3.80779724765538        0.50296315716138        0.36100002840127
C            2.87947670359986        1.33063342296803       -0.50686992395224
N            1.49641127820512        1.25926488305001       -0.05218646482299
C            0.54020524061460        0.53662717510695       -0.57418347154615
O            0.70945698799117       -0.20781068375029       -1.63094902546517
C           -0.79729475795026        0.53004269220211        0.00339920665654
N           -1.71140039258587       -0.24519504358912       -0.65089803202544
C           -2.94276025076047       -0.32917394560055       -0.24887773810286
C           -3.84385665639437       -1.22998339938864       -1.08224860426730
C           -4.57050876160689       -0.36630099794684       -2.12459509266727
C           -2.97477393311081       -2.27532738038071       -1.80314322776970
N           -4.82081844767015       -1.90128901322862       -0.23569558293320
N           -3.40160813202161        0.38190746429926        0.83150680364983
C           -4.80056421920125        0.37149244291047        1.27610275041162
C           -2.54973763576195        1.14924749709734        1.59909555437096
O           -2.90458164078911        1.76185163448939        2.59762818823616
C           -1.17069459284452        1.21029085456818        1.13253090223521
O           -0.33919060946617        1.95797943138766        1.86206342940218
H            5.27168119460585        1.03126125364487       -2.00194581840433
H            6.81059716101448        1.19827332263521       -1.14185094696291
H            5.51947843428127        2.38766566788610       -0.90366905811265
H            1.58139943874370       -0.17477500102108       -2.05037248067999
H            7.10467150931456       -0.26188593604736        0.66717160218708
H            3.79747489355665       -1.60591987251100        3.03196221494638
H            2.25910988649902       -0.25843309566144        1.63807617437953
H            2.93179756130793        1.00170239704973       -1.54723952227516
H            3.16670868944364        2.38551885093697       -0.47306086643291
H            1.27350977273944        1.82716335190768        0.75817532820181
H           -5.22739016033529        0.35731274449719       -1.64514311707459
H           -5.16865610809335       -1.00660061073642       -2.77136586822491
H           -3.84199219715678        0.16880103069176       -2.73242145126241
H           -3.61884741671520       -2.96330024962969       -2.34800647312532
H           -2.38746210666640       -2.83699049960105       -1.07845656411145
H           -2.29601694330243       -1.79083878217403       -2.50323125474611
H           -5.50764573854129       -2.35706264506547       -0.82130131927509
H           -4.35750919784492       -2.61629874873415        0.30973701561973
H           -4.98073598018266       -0.51151496954489        1.88685854165685
H           -4.97219249334729        1.27122863345409        1.86637189305195
H           -5.46262601094873        0.35865457918207        0.41722965154009
H           -0.82949466051050        2.34513760383272        2.61721033326100
