42
 energy: -82.983904328291 gnorm: 0.000891222955 xtb: 6.5.1 (579679a)
C           -4.24767871962392        3.44718419683608       -0.49834783012267
O           -3.94666903741362        2.07105873855983       -0.23135040991004
C           -2.74683559452929        1.80432387133850        0.24845457521960
O           -1.89520742872066        2.62739538782344        0.46998742823909
C           -2.53390854748368        0.31938244546120        0.47590933773121
C           -3.68354384548949       -0.61005937982285        0.66878435582956
O           -4.77658467031979       -0.26079444582304        1.03396067082608
C           -3.34428607515658       -2.07953101217445        0.40816860400457
O           -4.19048591893628       -2.92062784370547        0.18447083928702
N           -2.02297314681677       -2.35374526147610        0.42995242815601
C           -0.95430179679872       -1.42859745499249        0.75184564043972
C           -0.61374777199685       -1.54831258709727        2.24624929389926
C            0.27372084951595       -1.71205782337670       -0.17368229970751
C            0.92089252928322       -3.06365224344783        0.13057816513226
C           -0.16619663339052       -1.62888978723641       -1.64034491596257
N            1.21993796866936       -0.63237609665807        0.10455887865949
C            2.43438921466631       -0.53076363574644       -0.47933068082391
O            2.96592681280706       -1.37723063449398       -1.17440526654851
C            3.06762141478838        0.77017007274507       -0.14113691453560
N            2.53153184288108        1.72534967860868        0.55731423075774
N            3.44493496219699        2.73458938396079        0.60884493441360
C            4.48032994696961        2.33116941996953       -0.06359622158385
C            5.73986672118114        3.06713858436036       -0.31011588643345
O            4.30209491590650        1.09938018898411       -0.56333118396522
N           -1.31969313303553       -0.06518402556767        0.52850260686564
H           -5.26903190893695        3.47301267240304       -0.87123089618805
H           -4.15864815509221        4.03213758881984        0.41952630879646
H           -3.55657333319056        3.83844643259333       -1.24774245365301
H           -1.77856274718079       -3.33084472341942        0.37692447653766
H           -1.46606576214001       -1.20900193173204        2.83223082457186
H           -0.40415408935014       -2.58589236203537        2.49211171818323
H            0.25347450952167       -0.93537524529917        2.48104858429315
H            0.17684188141935       -3.85656044301038        0.09780543312066
H            1.38910327128804       -3.05402076761132        1.11280924997015
H            1.68446663177993       -3.27976566119519       -0.61489316063633
H           -0.90062333554065       -2.40336881921272       -1.85309631906127
H           -0.60663648773867       -0.65308615976753       -1.84215544685435
H            0.69677087298786       -1.77201435215058       -2.28885683608611
H            0.83365450609982        0.20557531712816        0.52473930008723
H            6.59409809406953        2.43438364151666       -0.07192557732373
H            5.76416703860030        3.96629502969517        0.30133342429403
H            5.80858415424313        3.34476004622509       -1.36268400992421
