33
 energy: -57.866838600719 gnorm: 0.000452736342 xtb: 6.5.1 (579679a)
C            3.76871686701086        0.36513902512972        2.86879363049481
O            2.68692943246203        0.18392837029809        1.94755684257639
C            2.83522062497555       -0.77764813649904        1.03736362287872
O            3.81722181012645       -1.47517510668838        0.95784064551718
C            1.64876558175154       -0.87651775819192        0.13508372775214
C            1.57587159250565       -1.70743694429967       -0.94768265950889
O            2.54637640940938       -2.53305202733941       -1.33180934458271
C            0.37491947136997       -1.71916038050114       -1.77563698241505
O            0.27242914776071       -2.45392552138191       -2.74686818050483
N           -0.63020424834166       -0.83416738626031       -1.39752852888669
C           -1.80895396463577       -0.84517234131506       -2.26184284203407
C           -0.49259008083215       -0.06023225834502       -0.27024976668668
C           -1.53623065546533        0.94001404607829        0.21238723083669
C           -1.24566180096816        1.30888096643457        1.66983274110016
C           -1.56140878929185        2.19970857210709       -0.65470263682206
N           -2.92531414219396        0.33947406973733        0.21812007558689
N            0.58295571568927       -0.07564488005808        0.44255770519914
H            3.87230664986984       -0.52030999259150        3.50071402840507
H            4.70147415911154        0.53576625495430        2.32531711827947
H            3.51707735823944        1.23378656168105        3.47346720037641
H            2.25867522227211       -3.01698527393657       -2.12872631396560
H           -2.92031645515798       -0.60248859057855        0.59528805716990
H           -1.51635024112882       -1.28540861140401       -3.21563897635405
H           -2.58826148932154       -1.45664054845322       -1.81177796534412
H           -2.16360331396658        0.16573389252598       -2.42821253215382
H           -1.24381110012385        0.41585229430178        2.29208644777419
H           -2.00193285729416        2.00208740373694        2.03293607754827
H           -0.26763780110721        1.78291552968242        1.73578568161727
H           -1.85782973553801        1.97978337689969       -1.67724643731229
H           -2.26052022401982        2.92068926848849       -0.23464612134610
H           -0.56421100217355        2.63894054283534       -0.66613519706152
H           -3.52971251159945        0.90678462025604        0.80430936468433
H           -3.34439062940664        0.32048096269511       -0.70457071282067
