42
 energy: -83.672100318132 gnorm: 0.000814877174 xtb: 6.5.1 (579679a)
C            6.37228300151068        1.10753532778166        1.39172876273736
O            5.26942208779753        1.19346099991896        0.50620663966010
C            4.24662070061353        0.32200993817448        0.74870807942592
O            4.31997601057169       -0.45888408595007        1.69514975389852
C            3.13847591997727        0.40774456252999       -0.18173505269240
N            2.13809107535426       -0.51508608117277        0.08636863224465
C            1.09458248447169       -0.59098747317550       -0.65957905322771
C            0.02286096098925       -1.63590460739684       -0.37678116758360
C            0.41014109680343       -2.38975889343474        0.90696612241246
C           -0.02339978007013       -2.64412603120066       -1.54300016743964
N           -1.27937819537762       -1.02566932026964       -0.10070805577855
C           -1.99762271473632       -0.52666225242256       -1.06100134215624
O           -1.76489889625047       -0.39640755744184       -2.29207654769943
C           -3.40099325393843       -0.02947118302360       -0.55549478328032
C           -4.49844795462472       -0.45953155854963       -1.52942779341086
N           -3.70187636436045       -0.51581906787704        0.80346695811676
N           -3.79945507581327        0.63936084001666        1.63363351082202
C           -3.66063842503298        1.65294457371804        0.87830580905702
C           -3.75548998828007        3.07181976188414        1.31738191597970
O           -3.42111568231635        1.40529940848418       -0.42675273949283
N            0.93036272726015        0.23871741604965       -1.74590460502002
C            1.82107275426323        1.19821032345692       -2.11868879746331
O            1.59909131302006        1.90620447238053       -3.10631007307725
C            3.06447674361776        1.31805402721043       -1.26653401245127
O            3.91629664385246        2.18255525080182       -1.56786495513000
H            6.81238849445199        0.10483150932411        1.37266248517597
H            6.06919519680722        1.33585454991283        2.41914188149356
H            7.11061300805586        1.83635833213433        1.05847449689527
H            1.37894932969635       -2.87714544074126        0.79535864849212
H            0.46146392741614       -1.69278226511819        1.74413479645229
H           -0.34589418427714       -3.14250069975595        1.12613878063565
H            0.92634851954181       -3.17678479572117       -1.60423182742705
H           -0.81958331833242       -3.36826563616879       -1.37253053612022
H           -0.20341924974080       -2.14640013172780       -2.49425393733279
H           -2.88718177594302       -1.04910779332522        1.14843543773476
H           -5.45035928110222       -0.01612466090133       -1.24359231153061
H           -4.23748135239617       -0.14142708565320       -2.53821994331296
H           -4.58926222406023       -1.54387522829525       -1.50692480750065
H           -4.58802980908928        3.56067026778257        0.81092973591857
H           -2.84237703729008        3.61085949115713        1.06219023192314
H           -3.91590664705891        3.11382172339638        2.39213253282118
H            0.08010021401173        0.13641107321471       -2.30156270275452
