46
 energy: -86.322500124720 gnorm: 0.000971115722 xtb: 6.5.1 (579679a)
C           -5.18698366786363        2.95867682193810       -1.33670950406504
O           -4.14225936021846        2.01860688558022       -1.06577926826306
C           -4.45181967812284        0.99511467551006       -0.27100888037688
O           -5.54623708494800        0.83625250839326        0.21534122276203
C           -3.28761716785057        0.08256820781203       -0.06227844737041
N           -2.11516916515519        0.44918830520840       -0.66010356147732
C           -1.04231241602501       -0.26219587334680       -0.54532329571325
C            0.17474067447091        0.27442716980447       -1.27840608233781
C            0.42198709553566       -0.49061145466726       -2.58126378131173
C           -0.01920620010420        1.76449821826886       -1.58248079561489
N            1.38162451558699        0.14064541832173       -0.43117192206756
C            1.36919642448651        0.58148553186933        0.81335092829926
O            0.44739518084200        1.01159867063937        1.45066640099033
C            2.80200929977086        0.48943864082180        1.53722578214087
C            3.15685113534622        1.89939910111419        2.00368887647059
N            2.65001590218093       -0.47281911319871        2.55322804056518
N            3.40229084169002       -1.46670366827476        2.32111122051696
C            4.10393054187218       -1.20275447343953        1.17996662974858
C            5.08595298891308       -2.08597782173067        0.56228484204506
O            3.77728553107559       -0.05696973712977        0.68840276273380
N           -1.02076035212986       -1.44000215712300        0.15800716445185
C            0.14767919102913       -2.30296451073759        0.31131741039976
C           -2.14431524652504       -1.88265493699335        0.83806048176476
O           -2.13988418579380       -2.90581454120400        1.51182740118482
C           -3.33687679370432       -1.05818267744586        0.69253685979460
O           -4.42289129285414       -1.49612458672660        1.33030761478583
H           -6.04836657458863        2.44773482338484       -1.77360551183612
H           -4.77789243879774        3.68099766517131       -2.03982661018327
H           -5.49050982088492        3.45789251374273       -0.41334317982484
H           -0.45505461462533       -0.39576818441331       -3.22046078781343
H            1.28151004270779       -0.06471731731094       -3.09518576526456
H            0.61185135175085       -1.54558649555115       -2.40137610519328
H           -0.22664334269482        2.31296735643180       -0.66515369486110
H            0.88408607621487        2.15862870696470       -2.04229616815126
H           -0.85755906892183        1.89060324122543       -2.26543120596299
H            2.24547034758827       -0.10061350331354       -0.88277434068914
H            3.28216042572357        2.53980834228027        1.13410515165367
H            4.08608642960956        1.86031756277874        2.56759010409151
H            2.34728643502400        2.27094549244919        2.62965394680946
H            4.58186996363546       -2.99177046969465        0.21431479778227
H            5.57692175423941       -1.59374949632755       -0.27401643390582
H            5.81421012759007       -2.40148032525285        1.31283934626238
H            0.66953346973047       -2.04988607508836        1.23440866670760
H           -0.20284701387515       -3.33363792344695        0.36774723609417
H            0.82074502169264       -2.19110793171545       -0.52827623321047
H           -4.20749028262353       -2.32970358560109        1.78828868742319
