21
 energy: -30.765919284993 gnorm: 0.000486594848 xtb: 6.5.1 (579679a)
C           -0.11030550984279       -1.98860802948855        0.28674483906694
C           -0.57019171669451       -0.64254711328784       -0.31161927303543
C           -1.97132849495160       -0.32465131752477        0.00950860011386
C           -2.35562056643357        0.96359195056669        0.22022524051904
F           -3.62667869760671        1.23675568739036        0.47935520190800
C           -1.44258746304039        2.02722122260644        0.19890794682120
C           -0.09897552677474        1.77457247325847       -0.03517741273238
C            0.37931076331701        0.48896661836421       -0.24357890751897
C            1.84365094035726        0.27040756226362       -0.44982704010065
N            2.37116476893021       -0.60861814745449        0.58919357788850
H            0.82313087383671       -2.30032400854465       -0.17255178901438
H            0.04701592320136       -1.86409975465478        1.35515594179528
H           -0.87313491659177       -2.74530770185828        0.11351084530709
H           -0.60657926027015       -0.83430392318394       -1.40556693214517
H           -2.68916523171180       -1.13486929063517        0.04776251580978
H           -1.79516813255528        3.03513576292084        0.38497186066325
H            0.59943735989144        2.60365097215160       -0.02382479882604
H            2.36673194409939        1.23436935317018       -0.46901151744625
H            1.99563866988756       -0.22584894456526       -1.41334544519016
H            3.31551837031334       -0.86250210482650        0.33732071017675
H            2.39813890263919       -0.10299126666792        1.46347183593959
