47
 energy: -80.197286204303 gnorm: 0.000450474747 xtb: 6.5.1 (579679a)
C            4.82114863444312       -2.12698636957926        0.50258346605294
C            3.60500453557084       -1.22340877637496        0.86371272320947
C            3.88839771225968       -0.46131284841747        2.13878603638190
C            4.17693353232837        0.85906346573967        2.09182192244728
F            4.52090247773605        1.47859963415483        3.26318591661854
C            4.08723769533729        1.67408924484384        0.95296964870676
C            3.56677815151476        1.06636547138428       -0.20307566000427
C            3.29289744888213       -0.27225242794461       -0.28004281685971
C            2.60606813870460       -0.84383998439361       -1.49099787977280
N            1.16065321609016       -0.56059718947276       -1.41707238000522
C            0.59328402295937        0.46240414206077       -2.07948522192848
O            1.15469893429549        1.06421889571900       -3.01768491215118
C           -0.77725247622899        0.79230858650747       -1.66266920650181
N           -1.30566388218464        0.11414723815610       -0.59690035715711
C           -2.52437751381382        0.33151787385761       -0.21397342264033
C           -3.00704980426593       -0.51485542108679        0.96039781066617
C           -3.75412335995105       -1.74026860982215        0.41290966635773
C           -1.78937178335705       -0.99133975784315        1.77045110317857
N           -3.89857756595628        0.24728958358335        1.83137386134752
N           -3.33929610446358        1.22367744285416       -0.86465575713939
C           -4.72986390195272        1.45529476160641       -0.47651230965918
C           -2.88214038164273        2.01270244998012       -1.93965811935917
O           -3.62965783300775        2.84269870995786       -2.46379239857682
C           -1.52494503862077        1.73958028785462       -2.33578752793205
O           -1.02598836403780        2.43741760191130       -3.37907770543053
H            5.03119088583691       -2.81454090765762        1.32237633003538
H            4.61314254294940       -2.70821308352788       -0.39615319577423
H            5.70381240883726       -1.51158448248108        0.32556102662864
H            2.75201862828873       -1.90675071667325        1.02668515286720
H            3.90954493095657       -1.01309535214234        3.07005500616249
H            4.32274285778752        2.72801823891755        0.99694965659157
H            3.35893824594792        1.69479429789728       -1.06787652028733
H            2.97227830748251       -0.39993039453492       -2.42358273702736
H            2.72728542112884       -1.93040338073741       -1.55279798319227
H            0.66853037819698       -0.90984763071934       -0.60558819869397
H           -4.03533242091682       -2.39574018509677        1.23572390043268
H           -4.65751493500453       -1.44759115964103       -0.11956113880352
H           -3.10830914782021       -2.29165005896586       -0.26980388184836
H           -2.13034199602713       -1.55141772892872        2.63927124076277
H           -1.15276247968395       -1.63223939465435        1.16192766854805
H           -1.20552148423888       -0.13570704676130        2.10737679455547
H           -4.37127269375613       -0.38984276531999        2.45577073965542
H           -3.35477124462339        0.88136293207721        2.40310644995116
H           -4.77369142025138        2.13029269181795        0.37823242169027
H           -5.21225792538459        0.51918628438835       -0.21480091516349
H           -5.25274988924339        1.90637034888648       -1.32097462653489
H           -0.09065646111565        2.11201548860833       -3.51870467040825
