42
 energy: -82.887884542079 gnorm: 0.000416913289 xtb: 6.5.1 (579679a)
C            6.66095677409556        0.28080141247885       -1.69752446710085
O            5.31592135171825        0.72014631001387       -1.48519855538978
C            4.54881917759076       -0.06082600677829       -0.73674158954310
O            4.92645373744472       -1.09877508223215       -0.24181437082673
C            3.15617258927165        0.46010460134568       -0.55800029092014
N            2.32082591242608       -0.41237532811795       -0.00164077700577
C            1.06297160134166       -0.10520098835363        0.23682179122438
C            0.20521214402155       -1.06645036475467        1.02814839141825
C            0.81387047359962       -2.47732304735381        0.95194339144410
C            0.16055886254398       -0.58191951970546        2.48361237103783
N           -1.07829940037799       -1.07668071414263        0.37294568182987
C           -2.41630613044376       -0.97481757221417        0.96798622317533
C           -3.22229117902814       -2.16316356524435        0.29202459839912
O           -2.51885847670659       -0.97576964713811        2.24083713149912
C           -2.99791361766234        0.29889705121632        0.30051637211171
N           -2.32214331525473        1.34177788100647       -0.05505779578906
N           -3.23429758975424        2.25526762572546       -0.51434524752522
C           -4.39829781609676        1.70105236555607       -0.40912724277552
C           -5.71349505438601        2.27082305661493       -0.77417114093668
O           -4.31169166398077        0.45556975653467        0.10328841504804
N            0.51356109594777        1.03198428591056       -0.22648048280121
C            1.23041369962663        2.04156586424732       -0.84837523732997
O            0.67937011336336        3.05493035906784       -1.21695693337449
C            2.72419496169331        1.78385783750438       -0.97809143860572
O            3.45154577275978        2.65237383710463       -1.43272533556829
H            7.12238707423592        1.00320966042452       -2.36746177127192
H            7.19676582991710        0.24598790443806       -0.74634949873342
H            6.66243145201661       -0.71373368023537       -2.14900101386215
H            0.18994531205676       -3.16784613235164        1.51438203492888
H            1.81744737028524       -2.45825999265299        1.37351421449890
H            0.86905523768738       -2.80484970958247       -0.08396640851166
H           -0.33871384683718       -1.31620593681094        3.11095391102556
H            1.18366857241167       -0.45238512648392        2.83491434242940
H           -0.36459482284055        0.36852604151565        2.55332606991124
H           -1.05481841773080       -1.21150127293742       -0.62421925028352
H           -4.25119451097631       -2.07225202865171        0.62790477668577
H           -2.78616964578825       -3.09127165600303        0.64766786227102
H           -3.16529156458191       -2.09717355520242       -0.78894837605787
H           -6.18065725243270        1.66084488023891       -1.54707374907068
H           -5.58142640722150        3.28598144301010       -1.14126469250870
H           -6.37209241128081        2.27670147082817        0.09416329054009
H           -0.50399599266741        1.18837528217406       -0.12096520366713
