46
 energy: -86.344026008502 gnorm: 0.000511899937 xtb: 6.5.1 (579679a)
C           -4.22639799428835        2.54427238386584       -2.86478452021691
O           -3.32691948039590        1.74498501150776       -2.07311221562173
C           -3.70818143301553        1.28636086818456       -0.94022636977362
O           -4.90442476987040        1.56563409591930       -0.54321395871446
C           -2.77495687255115        0.48575025208689       -0.18229454839563
N           -1.56590830081215        0.29087305977280       -0.78350278484290
C           -0.64339413033767       -0.41641070433654       -0.21210710734388
C            0.62884064197930       -0.61298994041461       -1.02485167925958
C            0.65439836436290       -2.05638180311094       -1.55291053853066
C            0.64020046486564        0.37086893798313       -2.20390775286727
N            1.78322533285065       -0.32441562398185       -0.17055674245761
C            3.06603720406234       -0.49131325318463       -0.58859202799695
O            3.40922318198268       -1.03780698158285       -1.61774975888437
C            4.01427286362108        0.06162390753317        0.40792074249996
N            3.70055625195170        0.67793144736956        1.50865659687849
N            4.87097694804918        1.01772503010445        2.11456640274577
C            5.82600400152224        0.58766760612629        1.34408219696304
C            7.28451550003627        0.70909826005145        1.55910884914812
O            5.34697370869588       -0.02315961890511        0.25124713875539
N           -0.84592597407488       -0.99605875120592        1.01089368930973
C            0.13019518297164       -1.83082944165687        1.72400932033665
C           -2.03214397259378       -0.86478560008484        1.72239513769824
O           -2.15792401157504       -1.40159422793359        2.80956927860827
C           -3.06254255535321       -0.06049881793049        1.05729611782568
O           -4.25658220188253        0.15756681699347        1.59430582383733
C           -4.65158193802853       -0.36000814424794        2.88146405301769
H           -4.51082366863254        3.43335464836635       -2.30153970736720
H           -5.11363205556267        1.95794955140428       -3.10502736266215
H           -3.67619842825504        2.80943474408996       -3.76429569392515
H           -0.29403860504738       -2.26753255985497       -2.04452627768927
H            0.79880289194417       -2.77084789733407       -0.74641863044778
H            1.45971041446872       -2.17407242155865       -2.27539654462390
H           -0.20688936577929        0.17535796224601       -2.85809962949252
H            1.56374815609995        0.24703779308989       -2.76710612607621
H            0.57515635101651        1.39389369118490       -1.83802431189894
H            1.63445206276553        0.30287675028962        0.60550310404210
H            7.74069786987475       -0.28068214384292        1.57646117717645
H            7.73453022286058        1.27378372841815        0.74241779571831
H            7.47475401447243        1.21625037087833        2.50181728903106
H           -0.30723004392108       -2.81922363899246        1.86436567091286
H            0.31040623743128       -1.38038791197278        2.70007729647364
H            1.05714114138863       -1.90210237737010        1.16994906210567
H           -5.14804966352217        1.18764483221337        0.32927357637750
H           -4.62695638164406       -1.44996559621162        2.87224332621775
H           -5.66925525617829       -0.00482313239105        3.03094196209272
H           -3.99486390595705        0.02794983842641        3.66037068131355
