20
 energy: -37.598246670186 gnorm: 0.000719044742 xtb: 6.5.1 (579679a)
C           -2.63122191468127        1.42535025036945        0.60935822413072
O           -1.37502572968562        0.77745438503425        0.29006594098577
C           -1.38793187105756       -0.48869265733597        0.05341645376956
O           -2.29391115069504       -1.25637246464170        0.01556970564867
C            0.10379708378968       -1.00675729641949       -0.26072008613626
C            0.21336164691267       -2.48882524008515        0.06301638875591
N            0.31407421630510       -0.64256555708117       -1.61308729916165
N            1.17444354412007        0.27373708833451       -1.68045420597368
C            1.61583402736331        0.53311915490737       -0.39978171419793
C            2.62042990578824        1.52434340552860       -0.04449283584928
O            1.02588178023076       -0.21830771738097        0.45004134560442
H           -3.38119607553124        1.14990345305072       -0.13252565675145
H           -2.94752320909347        1.11128673421415        1.60399154603978
H           -2.42524390099380        2.49224351158196        0.58586089762133
H            0.05351803444055       -2.63154372463141        1.12943865722658
H           -0.54832153896727       -3.02477942722350       -0.49972271384522
H            1.20464631417677       -2.84105333615208       -0.21232099019995
H            3.58730868265791        1.19395079892672       -0.43694190641606
H            2.68489546174807        1.64607858062841        1.03440596444479
H            2.39218569317180        2.47143305837520       -0.53689371569627
