43
 energy: -83.178639477999 gnorm: 0.000530500574 xtb: 6.5.1 (579679a)
C           -4.69773290001958        1.17205632371365        3.08284749012996
O           -4.17313444412327        0.65012993378437        1.84987905350713
C           -2.88807580176893        0.81570758924017        1.63203464058497
O           -2.12640230994989        1.36765427180325        2.38589038630637
C           -2.47281095685142        0.26124373500485        0.28653108301451
C           -3.23995923031899        0.44532926130538       -0.82376394216311
O           -4.42373781431566        1.04330880802833       -0.79602092719524
C           -2.76440305683605        0.00342285625854       -2.13288274218921
O           -3.40112803338634        0.09150882914202       -3.15601610811970
N           -1.48202408654272       -0.52546684183005       -2.09875181426046
C           -0.71416440143551       -0.68262447456370       -1.00942264616833
C            0.65572037717655       -1.31351831062903       -1.22722256931397
C            1.13683171677537       -1.16009811199136       -2.67892793699518
C            0.61810156497934       -2.80378624805930       -0.86575257668557
N            1.61127611049905       -0.61141443427472       -0.37946508292621
C            1.61788975216008        0.74735058327720       -0.41410096612877
O            0.74388505117120        1.39286089177328       -0.97173638324989
C            2.73062249019842        1.34506326767712        0.33930223908323
N            2.99866185562775        2.60045878992918        0.52490538099364
N            4.10853726073592        2.65267513684443        1.30607036617980
C            4.45315250516661        1.42534731479757        1.55450850924695
C            5.59167527371564        0.94540875623668        2.36515868689024
O            3.62105616292814        0.54926715065620        0.97037325726585
N           -1.22119369837007       -0.35371273100768        0.17156594523433
C           -0.51051945809070       -0.61090465797946        1.43158985286550
H           -4.53403748543306        2.25050354169164        3.12641655776374
H           -4.19848187667540        0.69053844212468        3.92535910711506
H           -5.76061014208515        0.94175353927049        3.08276288367579
H           -4.81595993613873        1.06577605387423       -1.68786686712011
H           -1.12783791441766       -0.81376543469726       -3.00083008715887
H            1.05498811529401       -0.12426612709207       -3.00453315867465
H            2.18341523802269       -1.45669163549351       -2.71750578325141
H            0.57635864373964       -1.80799836814812       -3.34980256031560
H           -0.10382659070359       -3.31186978621352       -1.50288384210612
H            0.34430862806992       -2.96698288612820        0.17326570352584
H            1.60382440507617       -3.23114702575853       -1.03941425879991
H            2.41450263960644       -1.11783604390734       -0.04603900492252
H            5.23078006740695        0.27572745405602        3.14506697588816
H            6.28263150452246        0.38380060818882        1.73632263264406
H            6.10895800133819        1.79066351345798        2.81317250372069
H            0.25492256362185       -1.35899987828735        1.28208539529681
H           -0.05715235591175        0.31580806121845        1.78163433630723
H           -1.22890443444976       -0.97227871730194        2.16324727050863
