42
 energy: -83.647571553489 gnorm: 0.000358734660 xtb: 6.5.1 (579679a)
C            5.84282259485691        2.80262902902411       -0.33612740898745
O            5.02329621450505        1.67517071488648       -0.59779743080519
C            3.89640865267233        1.57545742474804        0.15944837465141
O            3.63332434430617        2.43826571761033        0.99181539613034
C            3.08760628200714        0.39873074089476       -0.10558323751335
N            1.95975856899672        0.33153567278229        0.69456215117162
C            1.14536384749930       -0.65609543934694        0.60480128722223
C           -0.08023240824107       -0.70886511101313        1.50909221686320
C           -0.00098653192669        0.45517687653819        2.50192163288951
C           -0.12913793089529       -2.03403302997104        2.28505519580255
N           -1.30283613119649       -0.50985973855220        0.72398664783046
C           -1.88397976900838       -1.42488370715984       -0.09241028301706
O           -1.35822759916299       -2.49876484944376       -0.40540032040311
C           -3.16603418150986       -0.92028196851496       -0.78123906610789
C           -4.17685905264469       -2.06839754640315       -0.94924581917581
N           -2.68722345569818       -0.40068016205258       -2.06655053537023
N           -2.99420858433440        0.92700366314648       -2.05968705890616
C           -3.58684223771981        1.25212654980417       -0.97328180588119
C           -4.12662994613343        2.58150206793027       -0.57709954033797
O           -3.74338311529371        0.17182057471786       -0.07538859668224
N            1.35594267896461       -1.68267483442357       -0.28678988425155
C            2.42047022581595       -1.74722049327996       -1.13871275403772
O            2.54434131866790       -2.70678763752942       -1.90220716672676
C            3.39755977910519       -0.59446269715481       -1.06989766083988
O            4.37951386814385       -0.59807658942759       -1.83983641371227
H            5.29839530721111        3.73403993956651       -0.52282626487095
H            6.18633006603079        2.80072129604635        0.70333269165887
H            6.70032400036868        2.73874113828589       -1.00495150116066
H            0.90810025593406        0.37317515284529        3.09556583815772
H            0.01937886320889        1.40617350559092        1.96992143718748
H           -0.86075194307089        0.43741965655211        3.16886377764493
H            0.76994051695625       -2.13069221043372        2.89203157635758
H           -0.19254845951662       -2.88827190242780        1.61390329405752
H           -0.99819612442212       -2.04255469259867        2.94066375500976
H           -1.91852838091863        0.21066995171430        1.07459404651870
H           -3.68211081383509       -2.91964996777950       -1.41397196798670
H           -4.57136937204975       -2.36404777667808        0.02141979518251
H           -4.99690684603537       -1.73720616821636       -1.58296166969601
H           -3.98738706501103        3.28396980721865       -1.39786248088901
H           -5.19224342760320        2.51492265283394       -0.34668989238088
H           -3.62058987930519        2.97142508896331        0.30961903397213
H            0.68833787032147       -2.44716769931342       -0.31760438854016
