47
 energy: -80.182099167500 gnorm: 0.000232056169 xtb: 6.5.1 (579679a)
C            0.26589991056982        0.42845536642521       -2.94293413810608
O            0.55100948368009       -0.59665025912699       -2.00271407897998
C            0.71912791236986       -0.17105568934016       -0.67668426882156
N            2.09867596330674       -0.02265996081651       -0.30766656870178
C            2.79375056327940       -1.32144403606193       -0.25138738515256
C            4.24223711793047       -1.12341540709499        0.11236541918748
C            4.90852394562697       -2.05430004248929        0.90708761589197
C            6.24502626177188       -1.87819928764301        1.24041404650812
C            6.89488028220817       -0.75305068118932        0.76794794448235
F            8.19198254747603       -0.57231978982271        1.08779581860819
C            6.26713100276165        0.19469680487331       -0.01988273914898
C            4.93296487857136       -0.00153241134225       -0.34538946636967
C           -0.34989882382944        0.12840850479859        0.12012164197524
N           -1.62309405359410        0.06001361151523       -0.47439378136984
C           -2.69625231410400        0.35940795218709        0.17456105733342
C           -3.99094294885790        0.26993861344704       -0.64027327197375
C           -4.34854586555629        1.66807213251669       -1.16640801355122
C           -3.77513157781319       -0.66926657607668       -1.84026975832235
N           -5.09934110595620       -0.23925093164685        0.16948931197830
N           -2.69884715554424        0.79291174211792        1.47095229350761
C           -3.89542607803612        1.14817213522667        2.22173309191875
C           -1.46368482217880        0.81130243644572        2.21939957602517
O           -1.49435888734326        1.12238553602344        3.44608488665287
C           -0.33224909463206        0.49294394717341        1.50395572548086
O            0.88584330956539        0.49123044224813        2.22043829500834
H            0.21166007350083       -0.03862862149181       -3.92927401872929
H            1.05133002879395        1.19671575964297       -2.95214370853182
H           -0.69719817122576        0.90830225595665       -2.72134163488872
H            2.14941310115348        0.39854314788051        0.62044743223463
H            2.31069611202099       -2.00177547111164        0.46795195309214
H            2.72741165788173       -1.78311956672243       -1.24471570805491
H            4.38298660449197       -2.93040733613404        1.27084387292767
H            6.77157754714780       -2.59603410855100        1.85540443577417
H            6.81310681066756        1.06183795031485       -0.36810086630524
H            4.41398255513059        0.72914962477386       -0.95756136020661
H           -4.55929455075962        2.35715079547743       -0.34978669393060
H           -3.51755665923620        2.06368470798252       -1.75072898324353
H           -5.22910890099109        1.61216662617506       -1.80565851865255
H           -3.45416582170477       -1.65212676198289       -1.49611410388439
H           -3.01177968593104       -0.26740896242014       -2.50613762943830
H           -4.70741149304291       -0.77571772066674       -2.39298703477431
H           -4.98611323090385       -1.23602962434650        0.30745646873674
H           -5.96317954984380       -0.10680030604101       -0.33623294060822
H           -3.59143745996687        1.73069960730130        3.09513466529929
H           -4.57350171172935        1.74770677604692        1.61790792146417
H           -4.42576653801050        0.25505350697431        2.56202057870386
H            0.65507183086836        0.76224356858662        3.12440061896584
