43
 energy: -83.827873963899 gnorm: 0.000847611946 xtb: 6.5.1 (579679a)
C            4.20024162923734        3.52359661358367       -0.38869873266718
O            3.98116813198843        2.12630077426437       -0.35114229174034
C            2.72465432455033        1.74193153730718        0.11767065378555
O            1.90429832265870        2.62935890483537        0.44390504154172
C            2.54846120153253        0.35712461651721        0.16155816849544
C            3.50105971030831       -0.66716180945903       -0.25073505559183
O            4.86452664533042       -0.46990032006240       -0.00554855591096
C            3.07958347495369       -1.85824780953492       -0.75829133879202
O            3.71299813876978       -2.88646474235866       -1.10674770522069
N            1.59816011914141       -1.91943909458837       -0.89347035740763
C            0.80451764480902       -1.27503565433194       -0.02020893248635
C           -0.55433323416762       -1.90378524832948        0.29141158111271
C           -1.01480427475196       -2.83714869404666       -0.84127557619696
C           -0.41870774164028       -2.71412809266083        1.59098746279850
N           -1.54048800046122       -0.82619026761647        0.39664409545598
C           -2.81943981603149       -1.03887115726214        0.87231131790187
O           -3.16102175543040       -2.00896870375875        1.55060142215572
C           -3.72801444647585        0.04727922802708        0.53927181434056
N           -4.99105596176222        0.17251845825216        0.88305335133658
N           -5.43702121881656        1.33170611771051        0.31809585119668
C           -4.44275799718165        1.84690060267842       -0.33154826587134
C           -4.43459859825729        3.10201430192749       -1.11812135302490
O           -3.32550693350203        1.09645147310923       -0.23920733007692
N            1.25601664407292       -0.16482951434666        0.52175550523260
C            0.53049556421314        0.57580719980303        1.55615379416696
H            5.20493755861270        3.68197676502031       -0.78399521724180
H            4.13022779555879        3.96473763681151        0.61322327337879
H            3.47231680831872        4.02354188342533       -1.03937265216029
H            5.32052961612531       -1.27233072791795       -0.29700524681356
H            1.29498502201532       -2.82182510089798       -1.22330920704102
H           -0.40821227190902       -3.73979184251395       -0.87940460622466
H           -2.04560740176311       -3.13123079929058       -0.64879245327489
H           -0.97004508642791       -2.32762644186161       -1.80214255581420
H           -0.38614606327524       -2.06616017458238        2.46417928906721
H            0.50092438542498       -3.29629378586282        1.54806381716473
H           -1.25739048294583       -3.39808750087866        1.69912145270480
H           -1.48134198369914       -0.14751353870109       -0.34985538768348
H           -5.43808540641111        3.51946551596399       -1.14675983209602
H           -4.09260061833275        2.90430487689757       -2.13363779731682
H           -3.75547146100075        3.82632071253132       -0.66785816161200
H           -0.09718049528957        1.33993282463820        1.09793937461731
H            1.25508168230074        1.05627284091281        2.21150516926783
H           -0.08535217040075       -0.09650986335419        2.14524917654197
