20
 energy: -37.645447187172 gnorm: 0.000823049306 xtb: 6.5.1 (579679a)
C            3.50266994100540       -1.07017008803043       -0.16271804585024
O            2.06325382764359       -0.98382365944415       -0.19240180748431
C            1.53079920562900        0.19635494176208       -0.04557518956770
O            2.09850917561899        1.24250203095730        0.10998401155325
C            0.02448398952031        0.12360946973984       -0.09231148166949
O           -0.65637616291305       -0.99465296160166       -0.28019395939633
C           -1.95112187044424       -0.65091767821490       -0.26622536468521
C           -3.00855181039719       -1.65605156299483       -0.45712384089537
N           -2.08838399323253        0.63380225393279       -0.07744714692858
N           -0.83975672870996        1.10711169261882        0.02735795250138
C           -0.63419151449669        2.52033517959128        0.26327797798562
H            3.92248402767829       -0.40227862325144       -0.91592051941411
H            3.74426971525537       -2.10762447205858       -0.38006090931466
H            3.85989726347163       -0.78519789102640        0.82772184642385
H           -2.98400955060848       -2.01886385760512       -1.48641508933247
H           -2.83157784407402       -2.50732713556547        0.20013347004148
H           -3.98045610751536       -1.21415162459021       -0.25073393419502
H           -0.70700886876737        2.70255953366812        1.33537600463309
H           -1.41738020714866        3.06439933215103       -0.25947437801419
H            0.35244851248504        2.80038511996195       -0.09720159639082
