13
 energy: -19.066739634413 gnorm: 0.000404952908 xtb: 6.5.1 (579679a)
C            1.67971360322758       -0.48772723431462        0.12225487271638
O            0.74007064619177        0.61588562069326       -0.01172933097207
B           -0.74789077743853        0.57335472115595       -0.06676461834817
C           -1.44329891325195       -0.80810989999498       -0.05801474977837
O           -1.34019309697665        1.74788768872539       -0.12735554840103
H            1.11722260843656       -1.40805555476703       -0.00921866303222
H            2.43511246043245       -0.38627671986781       -0.65479478912420
H            2.12510241885496       -0.44533828208799        1.11551090873238
H            1.17684103990788        1.47858672763748       -0.00879242740531
H           -1.13247711381966       -1.40757643434261       -0.91363078812727
H           -2.52582446475577       -0.69413069427423       -0.09508631359764
H           -1.18752616444686       -1.37233464510630        0.83835177418490
H           -0.89685224636175        2.59383470654353       -0.13073232684729
