42
 energy: -82.876326121842 gnorm: 0.000634623175 xtb: 6.5.1 (579679a)
C            6.15953633524038        2.21068044181026        0.47648308127404
O            4.91650080441896        1.89282885628209       -0.16022389947112
C            4.24588281074100        0.86482885802339        0.33016329358661
O            4.61333805181303        0.19838343278275        1.26813713297955
C            2.95632383422588        0.58877832267020       -0.39517948450010
N            2.17130998998749       -0.27811745049304        0.22071995561026
C            0.99177782900457       -0.61432469454517       -0.28000149796489
C            0.17797811201768       -1.68468143580107        0.37073848680085
C            0.54768988064825       -1.85471941539440        1.85328773688928
C            0.52322731409637       -3.00068709614447       -0.37099382895975
N           -1.21895737624103       -1.43570129633896        0.12950637159644
C           -1.98115263592419       -0.40621687854402        1.01295780967400
C           -1.31308415880495        0.97304130825750        0.90005968148565
O           -2.03196121073640       -0.92950071077359        2.20074025771471
C           -3.35093952869402       -0.35122054743550        0.32246513358985
N           -4.11320464591356       -1.34789845734124        0.01892091687697
N           -5.24394654677010       -0.81300383450719       -0.54540609580127
C           -5.09187935203314        0.47110750602124       -0.54073764240739
C           -6.03076759521823        1.50422212751036       -1.03381945187999
O           -3.90848082932458        0.83040198866421       -0.00437522721632
N            0.50917021875527       -0.04656456161793       -1.39902861720595
C            1.19985590901127        0.87231381293626       -2.18022215034874
O            0.71831766736952        1.30242895949305       -3.19926871743331
C            2.58531487180145        1.23024078269502       -1.65636282255911
O            3.29050021296085        1.99468531540274       -2.28575170326294
H            5.98650649742695        2.45941513700932        1.52560929433251
H            6.57034544017835        3.06580045603519       -0.05563597545682
H            6.83772579575149        1.35714132707830        0.41360799333020
H            0.40459750661546       -0.91720642272876        2.38564147017913
H            1.59030260289698       -2.15791194112367        1.93281794473196
H           -0.09583639892431       -2.61459763549552        2.28980914522748
H           -0.03049754697109       -3.81861488802849        0.08439749198894
H            0.24787923746219       -2.91630312152006       -1.41994148488430
H            1.58978799161373       -3.20027021377057       -0.29237616353735
H           -1.74478285625741       -2.30504834589588        0.20279320638895
H           -0.28614644722608        0.92151700061849        1.25514196395957
H           -1.86905868204099        1.66559384930632        1.52929039805836
H           -1.32961677859204        1.32442206910607       -0.12809465410176
H           -6.35328357047915        2.13909794425856       -0.20828063643981
H           -6.89743640304220        1.02625197512269       -1.48411107420557
H           -5.53609334286025        2.13576850392688       -1.77108867221424
H           -0.40674600798464       -0.33636102751371       -1.72315096642443
