42
 energy: -83.004912481162 gnorm: 0.000712388458 xtb: 6.5.1 (579679a)
C           -3.99298582050291        2.28001352330222        1.81539436418768
O           -3.35242303262179        1.87780715172447        0.59364794628470
C           -2.68210881208926        0.74686072890316        0.61096790872463
O           -2.57991668383763        0.00987145125857        1.55488013789658
C           -2.04564534576366        0.43072567643962       -0.77516486461786
C           -1.86474118607995        1.69074929760856       -1.61946054504306
N           -0.75910640057309       -0.16220137164450       -0.48941600380275
C           -0.64772244153058       -1.40907747667194       -0.28860808486880
C            0.69164503544366       -2.00501483071134        0.09813601393219
C            0.58484424610721       -2.67200021850565        1.47735632780199
C            1.14057575731633       -3.00433038409611       -0.97756856269787
N            1.63607392069305       -0.89324044493155        0.16549641465419
C            2.93690990765123       -1.03455008955617        0.47649669941553
O            3.49623571245892       -2.09236869482500        0.72174761125634
C            3.66869195012018        0.25823287504732        0.49907636613188
N            4.92672318098238        0.44254728781179        0.75354474675493
N            5.15256603514625        1.78416596309786        0.67217572187037
C            4.01834919508194        2.33640458904401        0.37432112066244
C            3.73885691510161        3.77571075811853        0.17986592817582
O            3.03694737495312        1.42636675938155        0.24942771074150
N           -1.69864437830448       -2.30761741892514       -0.41878759887330
C           -2.90332605974671       -1.99661858091869       -0.97513194483470
O           -3.78220242433230       -2.81342488903269       -1.12743410326226
C           -3.03282070886981       -0.53233725016789       -1.40992980423841
O           -3.89299242249533       -0.17796244755960       -2.17153597382754
H           -3.24156356452836        2.42070898700449        2.59408303633725
H           -4.50004179335876        3.21753307480980        1.60003963593556
H           -4.70827703273890        1.51687676619750        2.12810630290615
H           -1.28825566243915        2.42583831805076       -1.06409140222164
H           -1.33315139729334        1.43561175940183       -2.53393025889709
H           -2.83661502021477        2.10888535024166       -1.87436588547464
H            0.26663054772636       -1.94057563618931        2.21879921002264
H           -0.13652156316835       -3.48559571070917        1.44628674439516
H            1.55380128670194       -3.07688593045337        1.76392695564851
H            1.22611807805086       -2.50035542612344       -1.93894309890439
H            0.41513587031493       -3.81057236021873       -1.06193814591645
H            2.10595043221150       -3.42811742542450       -0.70688454016480
H            1.25833518238219        0.02776263985670       -0.01676672819597
H            2.99622783682196        4.11181170344219        0.90330651168224
H            4.65587038514050        4.34602720161810        0.30819337075867
H            3.33860720784835        3.94572436210984       -0.81915935722322
H           -1.56603230776878       -3.27339263780467       -0.15889988311003
