42
 energy: -83.593356776610 gnorm: 0.000356402696 xtb: 6.5.1 (579679a)
C           -4.42544570366440        3.58603861617233        1.54120624244051
O           -3.49703516578701        2.57648924859121        1.21437353670935
C           -3.96564544223595        1.62540716300511        0.27472982549132
O           -5.11441182634934        1.77587054173828       -0.17850639594111
C           -3.01750013139079        0.61893333618607       -0.00083657141086
C           -3.26942674470830       -0.48760722809667       -0.94828759154039
O           -4.34519735588642       -0.60746473389558       -1.61142886420481
C           -2.21200507179910       -1.40027524405131       -1.05633155318404
O           -2.17611603475934       -2.50614516645469       -1.90398661128028
C           -3.23428740823193       -3.44261686517827       -1.75071964497795
N           -1.04152062340518       -1.26163494546606       -0.29556601250065
C           -0.87342604394984       -0.16377866827589        0.50733737186831
C            0.44523903746055       -0.07093947677427        1.25720285583535
C            0.41750618926666       -1.08332912165823        2.41405887273132
C            0.63960745832897        1.35537560393282        1.79112719692067
N            1.50151900488824       -0.42871858177850        0.30402470452764
C            2.85596306997860       -0.31272465556328        0.65199814837499
O            3.26688533824735       -0.35638548823838        1.83111662735583
C            3.67823209922309       -0.20016592095435       -0.51026272638438
N            3.24708351488642       -0.11899259826987       -1.77472137199899
N            4.36186453531187        0.01807319516642       -2.55599294909825
C            5.38719892196521        0.01741973583318       -1.76919735563827
C            6.81322829013031        0.14588989142643       -2.16002692489561
O            5.05623316335774       -0.11534494595425       -0.46194568508368
N           -1.79068537421068        0.72124321824124        0.66875850252883
H           -3.94572934772145        4.25234030207236        2.26047680665175
H           -4.71982064259743        4.16669211595688        0.65676056575771
H           -5.33403629045181        3.16661271026299        1.99365015913123
H           -3.27656173567816       -3.83195333748683       -0.72519765732554
H           -3.03041843201211       -4.26819224414253       -2.43549394535417
H           -4.20384413898895       -2.99488168905627       -2.00378085907534
H           -0.29484847245779       -1.92035037637226       -0.43518896229093
H            1.32908303671563       -1.02131539804050        3.00587615133021
H            0.32276264437753       -2.09432979160456        2.01882462553617
H           -0.43597475180069       -0.87601835633092        3.05963012924732
H            0.72579258661073        2.05692149735377        0.96120132512068
H           -0.22378402457658        1.63599475866680        2.39460231953137
H            1.53824442312493        1.41521765703384        2.40286638790941
H            1.31991626380815       -0.10535084201115       -0.64162892727216
H            7.36547795810277       -0.75563015131738       -1.89313522642539
H            6.88212539563624        0.30200669557101       -3.23407483484025
H            7.27375783124117        0.98761853975852       -1.64273468427682
