46
 energy: -86.335930939913 gnorm: 0.000885330110 xtb: 6.5.1 (579679a)
C           -5.73564531674337        1.78887044980520        0.05772888876684
O           -4.44026907170217        1.16249330491656       -0.02555126336582
C           -4.41849685539875       -0.10826523111518       -0.36299193884549
O           -5.41418184439630       -0.76062450398276       -0.59847730617901
C           -3.06980365632035       -0.74842548773544       -0.35502661411052
C           -2.98840192801403       -2.11380989095973       -0.34537202524250
O           -4.01271189147952       -2.93361850977506       -0.44563595279690
C           -1.67900711373423       -2.75825564109027       -0.22675311283357
O           -1.46305113186050       -3.93605543429147       -0.37044030452826
N           -0.63110415620693       -1.87588413729163        0.13016748162902
C            0.62165768289428       -2.63045437775786        0.31633198439120
C           -0.74749441888947       -0.53577571429133        0.17978727177948
C            0.33431515216787        0.28077193124042        0.90550829558573
C            0.09507552425167        1.78718819583510        1.07299962628786
C            0.37305620492397       -0.30413815933711        2.33538652962934
N            1.59690730220491        0.10259975605785        0.18785432497285
C            2.78958750536923        0.56578923162771        0.67237222463237
O            2.97905803152446        0.97449290888701        1.79767620383468
C            3.83663683159097        0.45689866161469       -0.36504670911473
N            3.67381039400840        0.00213130688934       -1.57271957734210
N            4.88321442326385        0.08002198900774       -2.18665484387000
C            5.71085013413844        0.58104564791239       -1.31609903353878
C            7.14897303330399        0.87238038702595       -1.50122060311761
O            5.10689498431342        0.83801327231473       -0.14805376947867
N           -1.89924676206541        0.00656990188131       -0.23332078768528
C           -1.93196873467877        1.33416966012683       -0.87548295014867
H           -6.23320779728754        1.72772773675991       -0.91144006436836
H           -6.33670915135002        1.28333853213203        0.81544511935297
H           -5.55168171054541        2.82388354746629        0.33481495234770
H           -4.86055958286721       -2.43099369935488       -0.54180963595747
H            0.49675281975925       -3.31352638897431        1.15527156234005
H            0.77863289064369       -3.21029937891408       -0.59383483404488
H            1.46000481634292       -1.96665999105308        0.47510600823808
H            0.23880901672170        2.32969167119170        0.14345156727032
H           -0.89266073350821        1.98230896775117        1.48169178168381
H            0.83554929707561        2.15591203718457        1.78351074623079
H            1.09823833711427        0.25039354311705        2.92760426764048
H            0.64158985190134       -1.35476717728274        2.35789309964656
H           -0.61137424768947       -0.18294545027949        2.78461951192472
H            1.53248317848884       -0.00103095949277       -0.81406446071686
H            7.73092575869271        0.38943961369098       -0.71599123123582
H            7.31974200826999        1.94814943713540       -1.43569544892994
H            7.47226796661423        0.51292904986013       -2.47564015029089
H           -2.24323563667941        2.10423140398639       -0.17590916772105
H           -0.94991389061626        1.54636340019130       -1.28319625312317
H           -2.64430651354689        1.27772558736835       -1.69465340959789
