42
 energy: -83.595812648366 gnorm: 0.000340582365 xtb: 6.5.1 (579679a)
C           -5.61289580979199       -0.75923094477890       -2.56044468529652
O           -4.33133352423100       -0.48925084214492       -2.03550547231877
C           -4.24485580139211       -0.54942739810518       -0.63533051686750
O           -5.29573397685838       -0.83946227927112        0.02653284769825
C           -2.99004586398485       -0.28298379671435       -0.08942050946867
C           -2.78872384398744       -0.32602551566644        1.34291617890105
O           -3.86448781375331       -0.63589324418769        2.14108735928080
C           -1.53956495586633       -0.06021843048617        1.82911316019173
O           -1.15013015010887       -0.05227485912731        3.16491780207848
C           -2.11926143228303       -0.15367097537527        4.18510178244750
N           -0.48737732620172        0.22835689238801        1.00078207698082
C           -0.74906935562558        0.24111007199461       -0.31360239100753
C            0.43614925652454        0.61017496935142       -1.21051062674013
C            0.24214175364901        0.03076486631386       -2.61691063929265
C            0.51510144570324        2.14903766794671       -1.26880449031197
N            1.63828596060592        0.05405103981774       -0.59467629968319
C            2.91520070179350        0.35408998986637       -1.04879616755598
O            3.14681024447245        0.81029319162853       -2.19349715413908
C            3.92056069751992        0.01585025791691       -0.08847982183104
N            3.71859507703446       -0.46813854967825        1.14407521265623
N            4.95650936409962       -0.63459627646629        1.70321216973840
C            5.83065902642698       -0.26029446952653        0.82788598056481
C            7.30741268312981       -0.26581127143417        0.98174109891921
O            5.27573323769567        0.16731893240132       -0.33312805524425
N           -1.89665299682122        0.02206002355614       -0.90323282469832
H           -5.54238076521756       -0.68615274568355       -3.64748214323807
H           -6.35566046688207       -0.03615256199392       -2.19945536615323
H           -5.95450880122690       -1.76661322861580       -2.28960703458622
H           -4.63551190794733       -0.77289085092599        1.49883566762596
H           -2.89239773679600        0.61956931153513        4.09844833545832
H           -2.60239346716013       -1.13849288914515        4.19897716414107
H           -1.59094329583220       -0.01308516442432        5.13234271099289
H            1.03321331520364        0.36414214744518       -3.28715022552095
H           -0.71988328413055        0.35629278496543       -3.01347759924349
H            0.24949322518539       -1.05900773508469       -2.57468585905234
H            0.66459632970704        2.54929318621228       -0.26553488501548
H            1.33712537674586        2.47224470141536       -1.90661502639115
H           -0.41740439086256        2.54525677374971       -1.67015627086630
H            1.55085037515716       -0.06831209013463        0.41407042945577
H            7.56766424472289       -0.65256178031571        1.96415831581511
H            7.76779461481687       -0.89095096196813        0.21617460231980
H            7.70731703679413        0.74298305274296        0.87613116927354
