42
 energy: -82.876326116220 gnorm: 0.000634698969 xtb: 6.5.1 (579679a)
C            6.15954362524825        2.21067299237884        0.47648182757436
O            4.91650950976452        1.89282080393153       -0.16022753495081
C            4.24588084528480        0.86483320497180        0.33017026185909
O            4.61332580752171        0.19839759193360        1.26815516723083
C            2.95632456024144        0.58878078301939       -0.39517666016129
N            2.17130949168574       -0.27811456820065        0.22072187474322
C            0.99177845253515       -0.61432256280962       -0.28000164494721
C            0.17797840314702       -1.68467962870291        0.37073736233585
C            0.54768909562935       -1.85471745831716        1.85328684529362
C            0.52322800019243       -3.00068542915253       -0.37099463818946
N           -1.21895682230677       -1.43569934853563        0.12950425510895
C           -1.98115279101007       -0.40621483021590        1.01295467723471
C           -1.31308592868371        0.97304373937870        0.90005477041918
O           -2.03196081500138       -0.92949687814338        2.20073799716675
C           -3.35093966309915       -0.35122111356098        0.32246193202154
N           -4.11319863217705       -1.34790101596474        0.01890952742241
N           -5.24394326246124       -0.81300836470898       -0.54541464185059
C           -5.09188323530826        0.47110376818664       -0.54073618017214
C           -6.03077598529197        1.50421730572842       -1.03381171662188
O           -3.90848717352151        0.83040082957565       -0.00437022390154
N            0.50917256863276       -0.04656278029801       -1.39902964031943
C            1.19985977984688        0.87231476062462       -2.18022269245000
O            0.71832322008945        1.30242952268811       -3.19927030655892
C            2.58531793710797        1.23024224967690       -1.65636128933301
O            3.29050405380326        1.99468695918361       -2.28574923666383
H            5.98650945716257        2.45942339775012        1.52560346121491
H            6.57036153379914        3.06578289572707       -0.05564650213378
H            6.83772764073977        1.35712848094933        0.41362242927236
H            0.40459597123031       -0.91720446778089        2.38564012677517
H            1.59030179465819       -2.15790949681730        1.93281810216676
H           -0.09583719499723       -2.61459583450003        2.28980792523350
H           -0.03049761358105       -3.81861310488883        0.08439610519694
H            0.24788109172666       -2.91630150314069       -1.41994265805055
H            1.58978850767028       -3.20026896600101       -0.29237590543581
H           -1.74478280012109       -2.30504647451498        0.20278971836709
H           -0.28614797106849        0.92152055161160        1.25513642218350
H           -1.86906067843776        1.66559660279036        1.52928505474613
H           -1.32961927886704        1.32442324342244       -0.12809987716188
H           -6.35328789032824        2.13909179286332       -0.20827069468152
H           -6.89744643796495        1.02624656407352       -1.48409882500692
H           -5.53610718247136        2.13576504337831       -1.77108341161295
H           -0.40674299101857       -0.33635925758967       -1.72315356336348
