47
 energy: -80.187582890586 gnorm: 0.000744375166 xtb: 6.5.1 (579679a)
C            5.05572897088007       -1.20001899394400       -1.67434910099835
C            4.65558946692065        0.30134841160503       -1.57387612470589
C            3.54725805582728        0.50420801022190       -0.56343709488702
C            3.73520058712968        1.13999790054322        0.63050892430242
C            2.60792065722871        1.26662849309078        1.64384644335890
N            1.47776774682341        0.39284863199399        1.36516233848601
C            0.27424838719663        0.86969615673841        0.97890494584300
O            0.05545238077114        2.07729760943390        0.84282090593077
C           -0.78926592807505       -0.14151606568867        0.72975062121716
N           -2.00645749746190        0.40286580208801        0.40587867963876
C           -3.04742927198930       -0.32086955320638        0.15739533884408
C           -4.31721512473959        0.43804295681724       -0.21578633913001
C           -4.43654461672132        0.49089992118727       -1.74665586763237
C           -4.22630684994233        1.87304581924365        0.33186908376404
N           -5.50056155310443       -0.22014006709909        0.33428704882212
N           -2.99742295744764       -1.69981546438905        0.16895597214357
C           -4.14420213267562       -2.55820904523421       -0.11484370006927
C           -1.81598091246710       -2.35698635726509        0.51193295737489
O           -1.74552380920349       -3.59446087549509        0.56499104588001
C           -0.68935871813544       -1.51676769227673        0.78976455061577
O            0.45491630418414       -2.18592359421895        1.10873227101683
C            4.95487150837877        1.76460494627728        0.97414412187495
C            5.99186167327802        1.77782910259940        0.01049597453002
C            5.82754848226322        1.14173636404203       -1.16828303904473
F            6.82611960751639        1.21257152864855       -2.11916715744078
H            4.19904195396950       -1.79273514278674       -1.99527224151315
H            5.38979662336681       -1.56418425027044       -0.70256389258766
H            5.86335048460222       -1.32730560674770       -2.39600687881675
H            4.31496841075751        0.59577531218694       -2.58501177746844
H            2.59006114231212        0.05822889904910       -0.81605889182932
H            2.23872329321976        2.30048238483430        1.66632264303194
H            2.99039054096884        1.02841707334694        2.64477262072871
H            1.61829199914531       -0.59354680521392        1.50356628634129
H           -3.55901846631650        0.97847406840725       -2.17114282274263
H           -5.32239865550620        1.05990441130415       -2.02497031518652
H           -4.52170728040020       -0.50848690273678       -2.17020307245840
H           -5.13152818023240        2.41783106542994        0.07046450776534
H           -4.12770138450639        1.85388094466335        1.41652168353013
H           -3.36380324862824        2.38944455079778       -0.08968568687960
H           -6.32774459673048        0.17591611292035       -0.08789380171440
H           -5.55700225117967       -0.04750778002982        1.32972241808214
H           -4.80606382582888       -2.59777953033477        0.75029508765351
H           -4.69951204251354       -2.18263765581758       -0.96940715274998
H           -3.77334676927592       -3.56028336980501       -0.33369256164177
H            0.24799868191781       -3.13854643905212        1.09099138174979
H            5.07917422373218        2.27227004949905        1.92192596413320
H            6.90981489071033        2.32347166464710        0.20569470283448
