42
 energy: -82.981738420114 gnorm: 0.000842592207 xtb: 6.5.1 (579679a)
C            5.99029090438856        0.83930447097677        2.02607632354166
O            4.79928300768898        0.61771809367421        1.28076497575105
C            4.73754393239063        1.23789608015118        0.06628199178063
O            5.66175249181430        1.93101499549914       -0.32307321431344
C            3.49273292897788        0.95927859933954       -0.63808854397373
N            2.59838490399759        0.15704222680251        0.03939383991997
C            1.47469669442447       -0.15679882347036       -0.48800687003088
C            0.51685034353008       -1.07379230428092        0.23961422070353
C            0.89075980230572       -1.15673943208594        1.72120936949591
C            0.53650381375872       -2.45808134103014       -0.42301897199360
N           -0.83756919354010       -0.48890718695199        0.11498660109724
C           -1.93568382377804       -1.08527921975421        0.57705161784204
O           -2.02506242909063       -2.16020355193852        1.14341032113477
C           -3.17526427592163       -0.27826817016368        0.33142832321550
O           -3.19282484284558        0.90945157500475       -0.25930680216735
C           -4.48050374523997        1.30004795904314       -0.27186174948966
C           -4.86873587208086        2.59213981631864       -0.86205564473363
N           -5.24589495523965        0.40737327889708        0.28436381940443
N           -4.41342012625850       -0.58060107690326        0.66340459327595
C           -4.94537165695352       -1.76352240257352        1.30598399175525
N            1.11242197481326        0.26611574568786       -1.75191831871637
C            1.89800381259062        1.08002917431017       -2.53616718943682
O            1.49885110795031        1.42463518045477       -3.64226154205282
C            3.23006980020029        1.47891656416652       -1.93636334302082
O            3.98606829396098        2.20721291527741       -2.59739213623658
H            5.89416792843527        0.27422685354958        2.95211191806591
H            6.11245277060414        1.90333129739440        2.25241277935521
H            6.86628939825903        0.49193784422680        1.46862759713962
H            0.79975511550857       -0.17424959059080        2.18178822455154
H            0.23901850942881       -1.85733770911323        2.23814425125121
H            1.92388607661837       -1.49181960124906        1.80761061384880
H           -0.09327595472876       -3.15635183022247        0.12374111229854
H            1.55895448915850       -2.83436785239056       -0.42834653920957
H            0.17842716586110       -2.38507788214294       -1.44817898271659
H           -0.92672713377228        0.43010239782299       -0.28879190116405
H           -5.94575881986662        2.72120641660061       -0.79128515185442
H           -4.55688864921631        2.62700099037016       -1.90656706089633
H           -4.36298238452598        3.40255553126242       -0.33542941130832
H           -4.23404588549361       -2.10855200636395        2.05364373416625
H           -5.08641090551290       -2.53685695899367        0.55116485241528
H           -5.89816765375254       -1.50081386585403        1.75806522170699
H            0.22742304114955       -0.01091820075052       -2.13739792040339
