46
 energy: -87.009160811045 gnorm: 0.000582845738 xtb: 6.5.1 (579679a)
C           -5.08363261149588       -1.80074993434876        3.12972574604571
O           -4.16968861414890       -1.35690032038831        2.13729709233736
C           -4.45602033864697       -0.14309114154686        1.57840206360504
O           -5.45854147565506        0.49840361328981        1.93888953633208
C           -3.52631320270148        0.29298793403557        0.57772501859674
N           -2.45689442859146       -0.51969709887694        0.27051429036185
C           -1.59011037387041       -0.17376659887589       -0.62247634937455
C           -0.48809603237754       -1.19687614160041       -0.91356012061462
C           -0.73946636236338       -1.80076754075858       -2.30616282781746
C           -0.55931185918336       -2.31422642163506        0.14374006697133
N            0.81053844994251       -0.51977956545253       -0.84442732465363
C            2.00912162810365       -1.28975617943087       -0.96976452458175
O            2.03378993782911       -2.40798857919433       -1.54920903209402
C            3.13329330070611       -0.64203849950965       -0.46108345695324
N            4.44031945107004       -1.08177719419554       -0.44157956338284
N            5.09541841880565       -0.11317371206121        0.19450120396815
C            6.52057222904532       -0.23423025262875        0.39200218250645
C            4.32360469812782        0.88299686453594        0.56750339747628
C            4.70611621241384        2.11534233079101        1.29474769027670
O            3.05115554346720        0.63066477873967        0.19058571908410
N           -1.68918862566366        1.01514969014370       -1.30990749175084
C           -0.76199132432860        1.46918113276423       -2.34352333485093
C           -2.76990286922843        1.91547294000855       -1.10216061888156
O           -2.82290097685360        2.95255313005407       -1.78647803769301
C           -3.69413581872747        1.51128410428044       -0.10309212129946
O           -4.74999721167515        2.33676838210269        0.15451699150378
H           -5.11905534989546       -1.09669374172589        3.96742667086904
H           -6.09092609306377       -1.90220727641651        2.71261278444747
H           -4.73066682518841       -2.77065204720788        3.47915391191986
H           -0.54665118913989       -1.07305635694612       -3.09154308536120
H           -1.77823760175729       -2.12404561496625       -2.37527940455885
H           -0.09394407578299       -2.66209688254594       -2.46871632364460
H           -0.41777160982579       -1.89677119973550        1.14007272380161
H            0.21653205346606       -3.05405941977582       -0.04692609472963
H           -1.53167216521435       -2.80380348235930        0.10566758359656
H            0.86080407186001        0.10594206564723       -0.04862728212455
H            6.76205201865317       -0.03153501723495        1.43359289784773
H            7.04031428097335        0.48037205505546       -0.24548242861810
H            6.81305293217476       -1.24790138053605        0.12830280568755
H            3.84794111095471        2.78220052301751        1.34526627755518
H            5.52701892793029        2.62225789144409        0.78684839754556
H            5.03366084875017        1.88225268584936        2.30965222802994
H           -1.23223374757410        1.37804679764761       -3.32564397592776
H            0.16033226100621        0.89728313779897       -2.31858718414803
H           -0.53190464008159        2.52172169035390       -2.16676569503544
H           -5.29638795224599        1.91858085239025        0.86224899773042
