16
 energy: -33.398675107402 gnorm: 0.000908370894 xtb: 6.5.1 (579679a)
C           -3.65279532104559        0.09188050845058        0.44182642970909
Cl          -1.90941963173432        0.39570511064728        0.67761347895799
C           -1.13532773257713       -0.72484522856924       -0.55950425323530
O           -1.84516506799298       -1.38433324243111       -1.23282643317145
C            0.28508067278498       -0.60708822027401       -0.50029481416219
N            1.17549357816860       -1.25568022069013       -1.21483600633716
N            2.37223126878072       -0.83258907276739       -0.81920283231204
C            2.18121402188894        0.06310443698128        0.12520957929770
C            3.20283193388306        0.82657472556212        0.86153034286427
O            0.88443060601667        0.24091907044089        0.36424652680991
H           -3.78561592221240       -0.44304921983604       -0.49742152597473
H           -4.01406101148798       -0.50296540462292        1.27593034567503
H           -4.14446513582563        1.05928900148338        0.40654345085175
H            3.54332179073024        1.66292454312942        0.24677789408018
H            4.06110022248374        0.19066572021546        1.07451644439061
H            2.78114672813855        1.21948849228027        1.78351937255661
