42
 energy: -83.602467964816 gnorm: 0.000760570764 xtb: 6.5.1 (579679a)
C           -5.52708378178993        0.87078652503275        1.71976787472886
O           -4.91475445340188        0.30396016881109        0.56998289052185
C           -3.58274362219750        0.55436043197969        0.41197823099191
O           -2.98198628196336        1.26675918039623        1.20369305984787
C           -2.95151626044487       -0.29304972236120       -0.70480973750088
C           -3.92031253986396       -0.47638577779348       -1.88683968904602
N           -1.72831454712236        0.33387443501503       -1.16953052448594
C           -0.60444635458157       -0.07054626060913       -0.62387303300655
C            0.62454147824703        0.73081137192389       -1.09479040164995
C            0.82927526914054        0.48873716896488       -2.59827120651660
C            0.39280107394794        2.22384715538119       -0.82192083041666
N            1.77542229431067        0.24966152063053       -0.34190809171475
C            3.04066535101507        0.68603767074301       -0.47724419487117
O            3.40285915585519        1.58955661937387       -1.24463783660061
C            3.96433180517347       -0.02977470022771        0.41175890252601
N            3.65219093321846       -0.97584813737552        1.26971960014842
N            4.81628496890715       -1.35181433031019        1.88079903709876
C            5.75884812547069       -0.62701457355197        1.37146708992848
C            7.20187481775068       -0.66325176003864        1.70710844843230
O            5.30347721284893        0.23255032711761        0.43823425207387
N           -0.35538477650621       -1.05542729989823        0.22518109850026
C           -1.42508092765903       -1.90037906565349        0.55275282918054
O           -1.23349892287596       -2.96364643597191        1.22821241903146
C           -2.68012303822586       -1.55375069441089        0.05672731675595
O           -3.77641120775547       -2.40485175352902        0.32125877275517
H           -6.58704728180608        0.62139274277791        1.67546388135168
H           -5.40678532722449        1.95987052563840        1.72559979587453
H           -5.08989423366331        0.46345060156209        2.63850955568942
H           -4.19650595756900        0.49389596872570       -2.29934699747517
H           -3.42750250108439       -1.05917449562266       -2.66464091711529
H           -4.82148589478817       -0.99939339207020       -1.56983045760642
H            1.63920112767745        1.10455962020331       -2.98818750764873
H           -0.09266749441008        0.73885302475609       -3.12374347152275
H            1.06420229570771       -0.56018189341251       -2.78097113337467
H            0.31372110139324        2.40174054354773        0.25127339835070
H           -0.54144737544921        2.52517855961573       -1.29667172790631
H            1.20707862339360        2.82722090354636       -1.22177868447709
H            1.56541366103973       -0.53487538633214        0.28365684622846
H            7.53128530410595        0.31171633875561        2.06549511362243
H            7.78858296912956       -0.91181584178990        0.82300278220563
H            7.37789907856718       -1.40934992520623        2.47782550895996
H           -3.40496286651263       -3.13829295834116        0.84161273813021
