43
 energy: -83.823780934668 gnorm: 0.000990259704 xtb: 6.5.1 (579679a)
C           -5.92342320200732        0.96735415879369        1.09255885694258
O           -4.56722945712021        0.79737843655196        0.71506182553406
C           -4.35046469416657       -0.17847243134254       -0.26871101117835
O           -5.33782724219245       -0.81351985789301       -0.72015338505430
C           -3.03740895796730       -0.36086792058762       -0.67962347783001
C           -2.66681593748535       -1.45597877106909       -1.57340731845677
O           -3.62007974870187       -1.91572204123003       -2.46894950772252
C           -1.42409801689095       -2.02637044482139       -1.51049312875548
O           -0.85696837065153       -2.94934328305270       -2.14673677274860
N           -0.59521602142579       -1.38935995770654       -0.45490583977627
C           -0.75384733228690       -0.15451962650789        0.00730870349284
C            0.43069190522369        0.34102036684678        0.84688366775706
C            0.62061612919629        1.84603476642646        1.05154346751577
C            0.24243816044168       -0.34546644371236        2.21271068672582
N            1.62396000836838       -0.17553306584922        0.16576312394430
C            2.88517787312116       -0.11212987225913        0.73733264630119
O            3.10200081225789        0.06231834602185        1.93712822316029
C            3.91098720682485       -0.33967310035462       -0.26465671384447
N            3.70878858885440       -0.52624729103993       -1.55367813580901
N            4.93822475988898       -0.70688551062334       -2.11879768392391
C            5.80896658864681       -0.62005038212746       -1.16373953118632
C            7.28058580959074       -0.75110968622534       -1.27610801943237
O            5.23934021989813       -0.38939644376849        0.03502071379955
N           -1.93793509715667        0.41061865453926       -0.14211113377613
C           -2.17933981050454        1.84239793354423        0.01625022672535
H           -6.53435965420216        1.28605768872528        0.23969077817022
H           -5.94692326282140        1.73833342048896        1.86362340755089
H           -6.34108328626688        0.03687969426486        1.49555998435918
H           -4.49502974630960       -1.64350077768717       -2.10272563508186
H            0.31025199308945       -1.82292597272639       -0.33500091597335
H            0.72044538409539        2.36438669611669        0.10032174484258
H           -0.19305002800531        2.27690081454762        1.62826841237136
H            1.54163344797477        1.99132117786675        1.61615736512707
H           -0.74441965273428       -0.09942015348957        2.60235172794961
H            0.99310520787937        0.00050148586120        2.91928370369933
H            0.32410656880278       -1.42610070505777        2.10672304550844
H            1.62715292349521       -0.01894130341188       -0.83539663628519
H            7.54739765168750       -0.99665302707508       -2.30071871438244
H            7.63938480169811       -1.53317422294481       -0.60843416127215
H            7.76549280231678        0.18197845439645       -0.99112294791148
H           -3.05926919143251        2.10710513196852       -0.56649990415179
H           -2.35892654203168        2.09071850478595        1.06188333553492
H           -1.33703359099013        2.41005856082270       -0.36945307247138
