46
 energy: -86.314659793718 gnorm: 0.000657286922 xtb: 6.5.1 (579679a)
C           -4.76138034965479        0.74142876825113       -4.39923062068357
O           -4.27737133592283        0.73541386278660       -3.05169480380652
C           -3.13476001079318        0.09401034047955       -2.83176285304108
O           -2.50523342750370       -0.46814107904737       -3.69767516182123
C           -2.70602576564768        0.13362156988350       -1.40056046772840
N           -1.53788305953266       -0.53463059827861       -1.15347192013461
C           -1.02998557938083       -0.61083231499920        0.03059154372937
C            0.23929041233113       -1.44638899050267        0.14710799340041
C           -0.01973004277744       -2.71214858259926        0.96741236148569
C            0.74313524923619       -1.81102398045502       -1.25399996056109
N            1.28930620934654       -0.59068457385638        0.76467633660236
C            2.35661334470713       -1.07389122668254        1.36756830382046
O            2.62350848862497       -2.18165575899703        1.73042815756123
C            3.43853162729890        0.10530563469707        1.70978353149225
C            4.68400112345041       -0.54630324700024        2.29150372019660
N            2.75732804518520        1.00506167388730        2.54280413032742
N            2.57763748729302        2.10374737004755        1.93058747875868
C            3.17591859775622        2.00178969998924        0.70530588541186
C            3.24138160926242        3.05493963555635       -0.30306707374585
O            3.69751645367042        0.83628591704444        0.54122403033458
N           -1.62728213623057       -0.02435557561154        1.11986073823068
C           -1.11145763561628       -0.09446536236314        2.48814642482005
C           -2.81382652872085        0.67748312545292        0.98215843188842
O           -3.37943353116135        1.20932865253820        1.92918237113782
C           -3.35964815357941        0.74732999301551       -0.36877587059588
O           -4.50102417270003        1.42706560761129       -0.48327264496291
H           -5.67825371222438        1.32752202545119       -4.39693816990321
H           -4.96316900848777       -0.28056554887260       -4.72900359244438
H           -4.02041690127729        1.19574472828758       -5.06081415508334
H           -0.07088335863479       -2.49585069184760        2.03101879741559
H           -0.96625951294872       -3.14648678811418        0.64718140731043
H            0.77125118202074       -3.44043127490616        0.79890107350511
H            1.68145032394583       -2.35592714353606       -1.17187937534885
H            0.00529748114013       -2.43282098461802       -1.75830307938539
H            0.90324390382068       -0.90790017962714       -1.83971829860163
H            1.28538058962363        0.37376276272577        0.47607729518852
H            4.40817162960037       -1.07182887580596        3.20301001938091
H            5.08717770377111       -1.25107613380871        1.56775449170760
H            5.41790045021722        0.22632556175508        2.50852012869036
H            3.50400055857581        2.64220920224342       -1.27476201802165
H            2.29894767966053        3.60033588761585       -0.34264657794616
H            4.01508876179320        3.76874634711197       -0.00214171222150
H           -1.48885900578447       -0.99300046449461        2.97579075944102
H           -0.02790031685903       -0.09455042106222        2.48086416976609
H           -1.47247539468547        0.78346571636138        3.02342017231953
H           -4.74881997225123        1.77403671428459        0.39541360210703
