33
 energy: -58.549030697922 gnorm: 0.000334517950 xtb: 6.5.1 (579679a)
C            3.74869875437510       -2.59262287971898        0.68037334309313
O            2.55787091852808       -1.86743711383761        0.39692542217993
C            2.68041747700343       -0.52328823034046        0.34789076587782
O            3.77047021192387        0.01521011894701        0.54896626725608
C            1.45052961294576        0.18796016352272        0.04846807066877
C            1.43194232009645        1.55058661589685       -0.05146985296573
O            2.52927781590532        2.30609264836329        0.11973702117035
C            0.16729905131401        2.34560455661175       -0.50446455144397
C           -0.03171793100801        3.52730668759460        0.50636767605245
O            0.17982105954026        2.67956822708964       -1.75435052014304
N           -0.99050932842251        1.37133439995149       -0.16578644109490
C           -0.82901376873880        0.03478593572835       -0.26495960305387
C           -2.10854966937297       -0.78558629492910       -0.38502944009533
C           -2.71642949881254       -0.91468318645681        1.01874497671269
C           -1.80120025320176       -2.17365301423573       -0.96105986241383
N           -3.06018247773690       -0.06222006150944       -1.23124066168331
N            0.29189192401587       -0.59321529800898       -0.13323660375228
H            4.50930013019113       -2.39630642282887       -0.08121169773312
H            4.14661155572124       -2.31041611496613        1.65950040306000
H            3.48576270684761       -3.64928880496045        0.67784464455522
H            3.30583638683750        1.73409339550590        0.32464642664990
H           -0.94386142569578        4.06091816860901        0.24640267500744
H           -0.10474413126481        3.15750574378685        1.52776983406611
H            0.81344115961996        4.20861929630259        0.42245827610045
H           -1.88747321051260        1.70610928123392       -0.49987436653490
H           -2.00000053029047       -1.37996616140557        1.69605744151143
H           -3.61707754406463       -1.52681629399132        0.98688291816023
H           -2.97615216655154        0.07189638658197        1.40307904739278
H           -1.35723645619561       -2.08043198789547       -1.95215422105424
H           -2.71563984853954       -2.75937008565324       -1.03847281274211
H           -1.09613091785370       -2.69493356118152       -0.31289283922331
H           -3.98963137159692       -0.41995355661599       -1.06955433301134
H           -2.84362155500711       -0.22740055719064       -2.20635640256928
