47
 energy: -80.167371028843 gnorm: 0.000459635964 xtb: 6.5.1 (579679a)
C           -4.10788647493173       -0.80461122431389        1.41898543248418
N           -2.69773728161975       -0.54398717658353        1.14582095331793
C           -1.77000822476661       -1.24464192401341        1.91419068596357
O           -2.11904239609961       -1.93359080142979        2.93012319648980
C           -0.46914570675502       -1.25992744533793        1.36603529653129
O            0.36209827202246       -2.26494697152274        1.82941990996730
C           -0.12468828742731       -0.41749361588842        0.30024012788600
C            0.90590899687769       -0.56935082778946       -0.67960904573908
O            1.02515316003712        0.15581853529924       -1.68784932214966
N            1.79099191365721       -1.63953739044655       -0.49430155035432
C            3.03633646253796       -1.62086693114652       -1.25097133439871
C            4.02808063658790       -0.65165359714929       -0.64109755302597
C            4.04785904664413        0.68342186011733       -1.04184860151504
C            4.92865923034915        1.58489472053451       -0.46144277206695
C            5.77948169233668        1.12572518685574        0.52747662423663
F            6.63828338395260        1.99449652377047        1.09680154822533
C            5.78907566189250       -0.18985995824211        0.95206797627610
C            4.90241579001698       -1.07744988679323        0.35705402158203
N           -0.96378669579040        0.76355215542504        0.17721257895979
C           -0.73144862976694        1.74095194715481        1.26560146638359
C           -2.31594380093495        0.29762544714674        0.14085445469606
C           -3.12995666453947        0.56217738003028       -1.10901076472162
C           -2.20219275586656        1.07164173874106       -2.22744472981076
C           -4.21322964907032        1.62857697503514       -0.84935224625559
N           -3.80882223658552       -0.66679511024332       -1.55522863337979
H           -4.61563004895605       -1.14554320572111        0.51542641950696
H           -4.59005934011027        0.10505370661485        1.78241776312981
H           -4.17818697614248       -1.57469969877599        2.18936967665854
H           -0.12304314035027       -2.70577288315226        2.55120724077318
H            1.90901128850196       -1.95974668582432        0.45850246772098
H            2.81058041177499       -1.33443676081331       -2.28349775977663
H            3.45054961063458       -2.63361393575749       -1.24949518269246
H            3.36666573192264        1.02107149613004       -1.81584042041541
H            4.95985614802216        2.62272426750186       -0.76753720083023
H            6.47549046812466       -0.51044472469526        1.72451350414831
H            4.90022929830259       -2.11491766640705        0.67158297625258
H           -1.38558590831505        2.59803281913086        1.10068522689534
H            0.30906621016965        2.06590247780341        1.22557730286399
H           -0.93677830304334        1.31617707921229        2.25671280626927
H           -2.77324500206812        1.20212398740842       -3.14602275093851
H           -1.76083243479563        2.02760801737992       -1.94599551023975
H           -1.39482492718590        0.36208650818481       -2.41013972295704
H           -3.75723463240379        2.52223557225110       -0.42440319239759
H           -4.71013810326777        1.89751583084082       -1.78179063052869
H           -4.96424288712675        1.25596639657561       -0.15499605633927
H           -4.44892199888304       -0.43321226262612       -2.30089469570878
H           -3.12318190756649       -1.30828294446822       -1.93647398097937
