43
 energy: -83.852183733980 gnorm: 0.000919720372 xtb: 6.5.1 (579679a)
C           -5.03106178220710       -3.42505422545401       -1.05242966284507
O           -3.94146987514864       -2.61209001113000       -0.66236867483382
C           -4.09329991646732       -1.25067495563116       -0.93687934235047
O           -5.15313694289579       -0.86135145940553       -1.50863719635056
C           -3.03930231601486       -0.43660668053061       -0.55589183659554
C           -3.09099203341235        1.00829491759810       -0.77230520217901
O           -4.22893726965671        1.53929825164976       -1.30492091486557
C           -2.06107151740156        1.77942467490510       -0.38091199037117
O           -2.00202467666536        3.15961582247898       -0.45373960990329
C           -1.23694913538079        3.68558008589576       -1.53334902063494
N           -0.83877289890048        1.16724361748227        0.09844274989528
C           -0.95085023688896       -0.20272335518790        0.43499607917868
C            0.25170220151606       -0.77658082344880        1.16403313032103
C            0.23995698566186       -2.30575598903772        1.07020855150858
C            0.24235647329699       -0.32275397786017        2.63235299999674
N            1.44716901817565       -0.24463935955428        0.49377249421661
C            2.71094619274056       -0.52164457029483        0.85897061873840
O            3.04825405279182       -1.27618465401689        1.76219507691846
C            3.68346285223307        0.20147046971635        0.00136747947059
N            3.39862584346817        0.96494332787091       -1.01419124045611
N            4.58678330195995        1.41331484108421       -1.51471275889513
C            5.51807687144023        0.89692394549021       -0.77455512452683
C            6.98080505118675        1.08099977806246       -0.90501121106946
O            5.01608062492708        0.12068186066389        0.19869494522093
N           -1.91902173949576       -0.95867986552239        0.10977330921785
H           -5.19769381183721       -3.37671233105798       -2.13575044337814
H           -5.95561537420976       -3.12280680919193       -0.54519640273234
H           -4.78544372025682       -4.45076841773515       -0.77178885863808
H           -4.82399805499009        0.74767571904551       -1.50046709263931
H           -1.70159957425822        3.45298222448544       -2.50002786944839
H           -0.21658330904005        3.28411784025559       -1.52253683602924
H           -1.19842401995667        4.76744112975537       -1.40027274902957
H           -0.39732934010162        1.72849571567013        0.81582471096666
H           -0.70030656976390       -2.68006768223926        1.47386979387513
H            1.06668806244584       -2.73168018148094        1.63527082873464
H            0.32026498000956       -2.61436793392258        0.02811963660324
H           -0.68608264247726       -0.64287024923332        3.10351603414714
H            0.31338751489520        0.76212915481077        2.69059470012867
H            1.08192898374078       -0.75845396485749        3.17162162496183
H            1.29927577113929        0.43931629783068       -0.23742801833974
H            7.19440874465654        1.72288936772553       -1.75573742692205
H            7.38185508150433        1.53346527778689        0.00159952716423
H            7.46793914963962        0.11616217652698       -1.04362480823312
