46
 energy: -86.307099643801 gnorm: 0.000446492926 xtb: 6.5.1 (579679a)
C           -4.59052773030760        1.93636025834516        3.04523429715657
O           -3.67507317063463        1.37385044067292        2.09059012213888
C           -3.96247970739909        0.18013220006950        1.62510509949871
O           -4.93896464045101       -0.46993567126456        1.94351837088145
C           -2.97209346800104       -0.34255492744155        0.64296449586066
C           -3.16189543205994       -1.55626702311133        0.04878800798187
O           -4.19836833676264       -2.35005498008013        0.24289074171719
C           -2.20953591415528       -2.01790674620299       -0.97015997096953
O           -2.34972112913878       -2.88766036349366       -1.76485094001779
N           -0.86059274965995       -1.31599076296205       -0.89546585260315
C           -0.16996451692669       -2.09578928983061        0.19524942294846
C           -0.15547273315475       -1.54528339027299       -2.18422303359459
C           -0.96123081749887        0.12071955515369       -0.45818584986891
C            0.02269426898791        1.19382823594945       -0.88699746495314
C           -0.08238570532264        2.36908459452352        0.10063726555164
C           -0.34382399292138        1.69452397903675       -2.29284990461110
N            1.40043403643740        0.71609028356280       -0.91924037801493
C            2.02325354793491        0.30477651675197        0.21894456455334
O            1.43870019939422        0.03470787312882        1.25309565009330
C            3.47777776358467        0.17092202978369        0.01831069163085
N            4.13648161095732        0.50426549938013       -1.05213285048681
N            5.44316124840556        0.22505731448751       -0.81029144644481
C            5.50331660763081       -0.26249889482747        0.39474391182070
C            6.70334116245911       -0.72606398225429        1.12401078151859
O            4.29332821427042       -0.31890329959913        0.96840646822519
N           -1.92955263102283        0.47861486279821        0.26832039396039
H           -5.59220696385112        1.97849509713225        2.61410379873068
H           -4.60485545095608        1.31975586596900        3.94568283933266
H           -4.22441752499139        2.93563279117226        3.26899067759576
H           -4.81848521649227       -1.95223417476732        0.90702297766103
H            0.89780994349619       -1.94355138426041        0.08749059269928
H           -0.40900767810257       -3.14901320559975        0.06960511784232
H           -0.50896530709439       -1.72690981259599        1.15924761543995
H           -0.75890270327235       -1.13324055811709       -2.98751223089468
H            0.81811232333173       -1.07150560992151       -2.13560984906859
H           -0.04450816797907       -2.61906908012361       -2.31461412133324
H           -1.06430161919018        2.83059535368219        0.01752254984686
H            0.68239030137339        3.10411154173071       -0.14256513247116
H            0.06029524297294        2.02344027627923        1.12262523623694
H           -1.40471802394419        1.93493475841455       -2.33449552847551
H            0.23056797493478        2.59477640076526       -2.50626273808383
H           -0.11616970189030        0.95239701170114       -3.05269583448368
H            1.98079308431928        1.04151987038187       -1.67934023607600
H            7.58779573262834       -0.57112363864830        0.51082082702576
H            6.80339065261700       -0.17787610282206        2.06064171342074
H            6.60457511744244       -1.78516171267896        1.36262613107742
