46
 energy: -87.060965834385 gnorm: 0.000355184405 xtb: 6.5.1 (579679a)
C           -5.28392713330103        2.33571444340626        1.99937164464697
O           -4.17741341723642        1.63168411025573        1.44474970852694
C           -4.45077740202039        0.44065921749803        0.88781912253052
O           -5.59302122218521        0.00499174946365        0.86171208935421
C           -3.26208284144571       -0.24516597768545        0.33421679455367
C           -3.40514016446224       -1.41891882176951       -0.40438466939134
O           -4.62004963133886       -2.07846975227626       -0.57390169585705
C           -2.29452801892462       -1.93465018547291       -1.14294084861043
O           -2.35931801281056       -2.88840571813131       -1.93854894917237
N           -1.09665870228781       -1.20713516710314       -1.00844626425142
C            0.07287613856511       -1.84062646579803       -1.61858547832936
C           -0.89503699022929       -0.37963481398846        0.19690672328791
C           -0.51565319645736       -1.28428047335000        1.40064713878257
C            0.16269478979540        0.75556488741518       -0.04956580100712
C           -0.25940771913007        1.54475371881775       -1.29501829598553
C            0.21677978450071        1.70060701411315        1.16257647079549
N            1.51221268869383        0.19483276181428       -0.22044945863392
C            2.60381560574155        0.91141293583257       -0.53586663493343
O            2.63718356555029        2.09039687449153       -0.85202186002231
C            3.82484329509428        0.05569954296095       -0.48128566791980
N            3.86419739771696       -1.20252906222481       -0.16058089601811
N            5.17027996865116       -1.58873805568156       -0.23993018390886
C            5.84303864059756       -0.54052373194430       -0.60291380424219
C            7.30273821372256       -0.43432192006739       -0.82116789440486
O            5.05103218734548        0.52951395550162       -0.77124832375677
N           -2.09417280292824        0.34781752750240        0.55597002715755
H           -4.89994415795627        3.27885384384296        2.38434816448270
H           -6.04077375969239        2.52451060778957        1.23276094762668
H           -5.73607897415646        1.75742090969773        2.81002046038879
H           -5.31191180511681       -1.59199036011672       -0.09029494333145
H            0.63772301185717       -2.43635742425031       -0.89460805674139
H           -0.26963583268114       -2.50165447905736       -2.41698712056970
H            0.73346032827106       -1.09390429113289       -2.05731192880030
H           -1.26736408120168       -2.06670649440921        1.50136019124985
H            0.45821634543330       -1.75439567454214        1.28141347457318
H           -0.51217395265429       -0.69135526434424        2.31259122429117
H           -0.17351825278232        0.93411351161804       -2.19255626093738
H           -1.30143057237464        1.84293795368533       -1.17288778278709
H            0.34832720145490        2.43854268015417       -1.41966944308966
H           -0.78862452652936        2.03754792252491        1.41261786395494
H            0.64652375129870        1.19356956070053        2.02508022583791
H            0.83486987390778        2.56692637668159        0.92956746108077
H            1.68353362727482       -0.73280855672352        0.14030543170302
H            7.50459546267985       -0.01449801285897       -1.80587781750852
H            7.74278965593363        0.22758326067552       -0.07527498001836
H            7.75690963581565       -1.41858466351136       -0.74136310459734
