43
 energy: -83.163526849190 gnorm: 0.000743146639 xtb: 6.5.1 (579679a)
C           -5.67967779309046       -0.86585243535492        0.69040254629515
O           -4.31211341696447       -0.44477518292976        0.52391108335270
C           -4.02283738047235        0.46731926743638       -0.32636350279823
O           -4.98596036878903        0.98589476716237       -1.01122836454478
C           -2.63566608424603        0.85151610823106       -0.46303051193785
N           -1.77548293307910        0.17928295405820        0.36925408788302
C           -0.51560419566457        0.44758103639386        0.31366732367723
C            0.45209761113586       -0.21661556563910        1.26357957005625
C            0.76780889514185        0.80189522588879        2.37167493837638
C           -0.15421888191090       -1.49844779956069        1.84119465637212
N            1.66184156762327       -0.52970487525406        0.49928045552068
C            2.77155484236263       -1.06071040981444        1.07804002963524
O            2.95689434055219       -1.17767021812076        2.27272298166103
C            3.75391088197900       -1.46959117312477        0.04634619633346
N            3.58083329590058       -1.42663868833061       -1.24119086559567
N            4.72101366930178       -1.90894431879759       -1.80617620044259
C            5.51831176753067       -2.21805432741401       -0.82666634653949
C            6.88031773145170       -2.78882892710957       -0.91531567137305
O            4.96239079041262       -1.96480202598942        0.36631012022681
N           -0.01383135539029        1.38277811024401       -0.54217126586928
C           -0.75896018219645        2.12900649002492       -1.42592549512640
O           -0.23467750311448        2.94175129513284       -2.15939471230053
C           -2.20036948994557        1.81812471854941       -1.35723575209812
O           -3.09217346196246        2.43130818930324       -2.12249719600455
C           -2.73849647305786        3.44743938811872       -3.08430878186041
H           -6.05624014894537       -1.25266407297564       -0.25692458159690
H           -5.66215141222581       -1.64205852023259        1.45172489180170
H           -6.28273161243259       -0.01543684548222        1.00959490281356
H            1.28684174971003        1.65981758865403        1.94884046840010
H            1.39300792124520        0.34423361965760        3.13566474768982
H           -0.16316240007915        1.13689803539489        2.82600828431514
H            0.54544098604915       -1.95296540226631        2.54066901317580
H           -0.37155460916658       -2.20119216748766        1.03889468902061
H           -1.07965058683963       -1.25859923534854        2.36161199274931
H            1.56758817466118       -0.64534903458065       -0.49831618119877
H            7.20227471565949       -2.80839844857019       -1.95318666387803
H            7.57349748722295       -2.19157823325578       -0.32466842918123
H            6.88400110857541       -3.80300448116782       -0.51606233129771
H            0.98213407172553        1.56299148999213       -0.54781960923329
H           -4.70971095674419        1.67769729811846       -1.65112970602277
H           -3.67948921768330        3.74636206756792       -3.54180786927567
H           -2.06364135354651        3.03448865202071       -3.83461322273153
H           -2.27336279073307        4.29549508683420       -2.58086771843362
