21
 energy: -31.455903242661 gnorm: 0.000713035675 xtb: 6.5.1 (579679a)
C           -0.24825018710327       -1.88549355430113       -0.04414293014343
C           -0.16140923601577       -0.33205682412466       -0.12575779001066
C           -1.61979767248079        0.20907900650139       -0.28352267639676
N           -2.51310821523871       -0.27251973458138        0.78085054622201
C            0.48113997490078        0.21805614687258        1.13696143801834
C            1.60838177966512        0.99253550083741        1.12710573606694
C            2.24185294790864        1.31646721904240       -0.07382967467056
F            3.39009736271322        2.10776879939619       -0.04758913669192
C            1.76101158066208        0.85107150888419       -1.29736680269783
C            0.63604414469821        0.07352730596811       -1.35561692899795
H           -0.88954403165243       -2.19114837559656        0.78508029857552
H           -0.65420162287188       -2.29879341150206       -0.97008645792580
H            0.74952598021476       -2.29738233771537        0.11264519486183
H           -2.02728899726886       -0.12928369834562       -1.24480637607137
H           -1.58575529293272        1.31037126501700       -0.29937926677497
H           -3.46331210071180       -0.03279560852320        0.53844872200707
H           -2.29863518138700        0.21856500416599        1.64192400585108
H            0.00599846815886       -0.03915426951126        2.07988133075841
H            2.02381585474195        1.36225259362099        2.06237182326643
H            2.29178761528514        1.11149903153792       -2.21083822204373
H            0.27164782871454       -0.29256756764295       -2.31233483320265
