46
 energy: -86.351105689015 gnorm: 0.000455870077 xtb: 6.5.1 (579679a)
C           -5.10875102773989        1.93656380530968        2.88517143808464
O           -4.20736018927333        1.25310242915718        2.00757784807465
C           -4.68736241675763        0.91613725085173        0.81030898432989
O           -5.81647597167723        1.15691204104801        0.45518072950600
C           -3.66455449465083        0.21985720575454       -0.02500540565628
N           -2.43101365739212        0.04449810167269        0.54231907629947
C           -1.46853807555756       -0.53567792444415       -0.09188230724836
C           -0.16624372800593       -0.69487210606722        0.68245346032890
C            0.12358190110887       -2.17686827202660        0.95335543626694
C           -0.26175988662028        0.07486102268134        2.00568437482386
N            0.90659728716000       -0.05968134842494       -0.11540684275926
C            2.19489260706474       -0.10686446408327        0.13296161368266
O            2.62752933510383       -0.81801530321952        1.12420912755494
C            4.02193393665877       -0.95222166940371        1.45480727303392
C            3.01987086068520        0.66261049643448       -0.76479524155597
N            2.55007967451013        1.38800418506943       -1.74644475788118
N            3.60281385501987        1.95070761499838       -2.35668459564258
C            4.67465816411836        1.54567835025246       -1.72308381756778
C            6.07938724310349        1.89556685365776       -2.00940607864730
O            4.36218179774778        0.73168559403047       -0.70945598166365
N           -1.61989121197104       -1.01542166966765       -1.36840325969686
C           -0.59402008330870       -1.70816579981526       -2.14914225209553
C           -2.83303187897450       -0.90239939038263       -2.03151544407001
O           -2.99515217846848       -1.33442903915468       -3.16498476702215
C           -3.89704008362576       -0.23320600673855       -1.29432396648663
O           -5.05894056349711       -0.11651224295059       -1.93688747229720
H           -5.98010341929939        1.30980140547227        3.09089941580990
H           -5.43535201107203        2.87472659794703        2.42969389327848
H           -4.55821872920488        2.13280378438430        3.80267764114087
H            0.53646684232624       -2.67060368020209        0.07819011837096
H            0.82824435161869       -2.28241007444030        1.77478573279266
H           -0.80877386123538       -2.66759990780408        1.23084790804301
H            0.68406821118224        0.00778317825963        2.53761123094445
H           -0.49614093819812        1.12046089121791        1.81562523391426
H           -1.05063916965268       -0.35986698294126        2.61683339819158
H            0.62805587774875        0.56607528299784       -0.86320010819197
H            4.44181746741572        0.02443157996425        1.69573546672385
H            4.55926664160631       -1.39915516885025        0.61865132036613
H            4.04857831048356       -1.60696214720537        2.32381178302938
H            6.28244779231068        1.77232594546027       -3.07303511945871
H            6.25656015635151        2.94077280449138       -1.74998845965002
H            6.74628494936662        1.26478211760534       -1.42724169093692
H           -0.81693533232418       -2.77508721140999       -2.15815695955224
H            0.38967494322271       -1.53437608454330       -1.73460068532027
H           -0.63558854528210       -1.32638848250967       -3.16932535130935
H           -4.97310575212082       -0.51336456243311       -2.82353893987898
