42
 energy: -83.020337193976 gnorm: 0.000781324022 xtb: 6.5.1 (579679a)
C           -6.09887724158463       -1.05927568428993       -0.53917146021075
O           -4.84704571642047       -0.81343776192065        0.10736264700854
C           -3.85881163475995       -0.37033255358303       -0.66579575968581
O           -3.99006875505113       -0.17104318410094       -1.85308597890954
C           -2.56932662253217       -0.13818727850145        0.05490032998998
N           -1.59247300105561        0.33836626605577       -0.78074395051570
C           -0.41903756607385        0.58993647723323       -0.31629411384546
C            0.64629607586215        1.17334224258166       -1.21804860584951
C            0.73647659509519        2.67893725417840       -0.92190608766166
C            0.29253541247045        0.91530593530939       -2.68595465205686
N            1.91788104441195        0.52059746304354       -0.88652462893834
C            3.09021069320330        0.85699604839839       -1.46867836436630
O            3.24997257010736        1.76351602192379       -2.26783285143170
C            4.21506377684947       -0.00075228641435       -1.01855499930100
N            5.45627835663434        0.06463136336727       -1.38788905123008
N            6.11989490494248       -0.91608806161235       -0.71334151341180
C            5.24293305883894       -1.52025026211741        0.02623741124620
C            5.46402705808052       -2.65136360168351        0.95282899976515
O            4.01632536859971       -0.99094247221215       -0.12084657361517
N           -0.11969174096763        0.41373859566983        1.00236963058855
C           -1.00714616431982       -0.06353954208300        1.94507643125106
O           -0.64986545641951       -0.19064403837746        3.10688316236628
C           -2.33359257914530       -0.36179851439466        1.39413462678121
O           -3.31878319091458       -0.83709867495600        2.16669246181796
C           -3.14376152610335       -1.15902891853494        3.54691628493883
H           -5.98589350564270       -1.84660200450997       -1.28791704631962
H           -6.45682566539598       -0.14834327217705       -1.02438545723319
H           -6.79378504392922       -1.37303102268776        0.23672132619098
H            1.45458058299129        3.15255536113623       -1.58813031537090
H           -0.24124727292619        3.13439543919351       -1.07123538133908
H            1.04808068655772        2.83501282667238        0.10900265247821
H            1.03724964117727        1.37215167382882       -3.33483185698758
H           -0.68474613368845        1.34460102585851       -2.90186180860607
H            0.25733693603317       -0.15621653750348       -2.87598165982131
H            1.89261697452716       -0.30875365321786       -0.31798135666870
H            6.48890481250468       -3.00422221121306        0.86241428629149
H            4.77233487987094       -3.46096661380548        0.72297823795179
H            5.27905981922239       -2.33149609549983        1.97857167741784
H            0.80176531116320        0.63412266572785        1.34822882776389
H           -2.36310572227528       -1.91129268798636        3.67977281418681
H           -2.90320720061979       -0.26861604178586        4.13243287875393
H           -4.10253081931871       -1.56419168500583        3.87346978658047
