47
 energy: -79.474857040336 gnorm: 0.000610629694 xtb: 6.5.1 (579679a)
C           -4.35626659656385       -2.29711730428683        0.37079649541805
N           -3.16288021455272       -1.44656167587847        0.33914022008107
C           -3.16115378364215       -0.15971498926295       -0.13220066097380
C           -4.41320369722457        0.51032202371148       -0.68432634449169
C           -5.21951260166566        1.08949599952931        0.48695381785211
C           -3.99394042880512        1.64984968828348       -1.63159271416566
N           -5.23134302384085       -0.43860260474970       -1.41857658512747
N           -2.09877501223716        0.58470185259450       -0.09277949384462
C           -0.92380294166513        0.12060549402089        0.41754897669137
C            0.21359244487614        1.09053523550522        0.39680593949687
O            0.28873585555282        2.01845523304415       -0.38996667669358
N            1.16745560199716        0.86264174717717        1.33768415018268
C            2.37098470506387        1.65793325407027        1.35487349180407
C            3.58703329849038        0.86515787302059        1.04038982935791
C            4.85922429806828        1.40643276658647        1.35819278648721
C            5.99815882807134        0.72072554336371        1.08438520444099
C            5.94573093661715       -0.51992025332298        0.28041988290228
C            6.30823612628722       -0.10451277138740       -1.18114474802049
F            6.91010951907384       -1.41100335811858        0.66307520650841
C            4.61153941494988       -1.15479620667326        0.20704626919228
C            3.49410523547521       -0.43909622324423        0.49641386088302
C           -0.83799283230365       -1.17385741885741        0.83723896481924
O            0.29871642417954       -1.74197451134866        1.29459049798729
C           -1.99999790014315       -2.03987304662037        0.80005916154282
O           -1.94868739356101       -3.20699660696664        1.17657691499245
H           -4.17900878513690       -3.09798890328144        1.08839505698654
H           -5.22054804465685       -1.71544465280649        0.67449485977588
H           -4.53044460910859       -2.72139723044352       -0.61654783534250
H           -4.59763412964324        1.78054176492962        1.05463607892277
H           -6.08603541596601        1.62645421795087        0.10410089299291
H           -5.56397598659280        0.29965327108285        1.15196801474858
H           -4.88340146995075        2.10675775434673       -2.06098753293661
H           -3.42968851910964        2.40385811708552       -1.08476125221755
H           -3.37185973330093        1.25754022383227       -2.43435528826488
H           -4.79958422579782       -0.69042114783718       -2.29588062876454
H           -6.15172668654674       -0.06384917731707       -1.59243942899489
H            1.10615145095866        0.08828840623291        1.97585860303320
H            2.25418356834535        2.44371862817708        0.59182934902241
H            2.48863784037441        2.16348222526459        2.31939589689313
H            4.90492030864854        2.35768923367352        1.87577249384514
H            6.97520140284997        1.09520550215067        1.36466292913428
H            6.31650491192400       -1.00257308526833       -1.79431953494551
H            7.29985236727619        0.34187211425610       -1.16824851569194
H            5.58390154633644        0.60626764404468       -1.56801470315032
H            4.56154480782215       -2.17112793639491       -0.16448684227360
H            2.51190897604805       -0.88103222676744        0.36760121150723
H            0.10503416273703       -2.67032348309391        1.53027172839163
