46
 energy: -86.297099815230 gnorm: 0.000495800531 xtb: 6.5.1 (579679a)
C           -6.74705638107983       -2.07552802794245       -0.91737263098345
O           -5.73173056769571       -1.08136650285303       -0.73490421529133
C           -4.62605620624294       -1.46616397220788       -0.11142432222320
O           -4.44081159703936       -2.58659940752181        0.30085221387525
C           -3.61803717336601       -0.36651756788455        0.02878169305003
N           -2.46173452089180       -0.75225209800433        0.63468505161716
C           -1.47766396493235        0.06887230202942        0.83352820613863
C           -0.27619621821674       -0.50603666936016        1.56768398265741
C           -0.21287624821295        0.06844363981122        2.99044687861427
C           -0.39046614545201       -2.03608022966179        1.62960921737520
N            0.93645735350573       -0.18234163876841        0.79766139985126
C            2.18191637758982       -0.41902345269999        1.24750737398007
O            2.51164692940154       -0.85067806156207        2.32641844338756
C            3.19521219549927       -0.04387620497875        0.19421420465379
N            2.88023149458559        0.42170337406159       -1.05638955255857
N            3.96250523126556        0.63602060148705       -1.67215473599093
C            5.07324874620592        0.31571865082699       -0.83532914267114
C            5.91372925023486        1.56795458856461       -0.55021445880083
C            5.90522381201750       -0.82278748824981       -1.43910998938006
O            4.45451985555037       -0.12766823699018        0.37094909132284
N           -1.54548448825577        1.37945392092089        0.45211872789908
C           -0.50676396164391        2.39359266150775        0.63830355367147
C           -2.67691816615153        1.88162623652835       -0.17619683088671
O           -2.75236827802114        3.04991977115915       -0.52876421234030
C           -3.76417639502717        0.93338147528384       -0.38676277789706
O           -4.84624086134596        1.42210452457776       -0.98358050617262
H           -7.11151205262550       -2.41887796006492        0.05355448591119
H           -7.54910660643494       -1.59985411634897       -1.47804594208288
H           -6.34292439252908       -2.92406101558276       -1.47428243072871
H            0.03928902285076        1.12532336623841        2.97959809338470
H            0.53181819842782       -0.46380945814796        3.57843691044084
H           -1.18782469931701       -0.05754067397138        3.45959411808614
H           -1.28763878901131       -2.30885098569435        2.18254715063848
H           -0.45357718279153       -2.44718312883207        0.62412846358540
H            0.48294013018161       -2.44463850335165        2.13355348785907
H            0.82481699760603        0.07654767541797       -0.17038696303290
H            5.27931260117991        2.32992313858616       -0.10303924299251
H            6.32833847928529        1.93230357480887       -1.48689601415423
H            6.71455868487611        1.30339480900290        0.13642118337400
H            6.32802415510312       -0.48558659598679       -2.38207163480096
H            6.70042231097398       -1.08187398299124       -0.74394205100912
H            5.26423190162373       -1.68564371987459       -1.60635940345818
H            0.38195860944201        1.96504530816559        1.08148083166743
H           -0.26942906818421        2.81574521088119       -0.33792300771769
H           -0.90712002521208        3.18052896462696        1.27799157296778
H           -4.70668734772183        2.36723290504619       -1.18352827083733
