42
 energy: -82.956077196510 gnorm: 0.000474318726 xtb: 6.5.1 (579679a)
C            6.67977012186988       -2.29075791257659        0.63091820449826
C            5.30217248028172       -1.80243020239736        0.85989201286138
N            4.44955219435746       -2.22111454530514        1.74675287359511
N            3.32280249138117       -1.47399832288917        1.58439702975944
C            3.55884425045483       -0.64721470835363        0.60979539734076
C            2.60927371490040        0.35013075324123        0.05678065900852
O            2.86733015369012        1.05345566608925       -0.90770636827318
N            1.45092806420490        0.34127994989172        0.74292724404549
C            0.29801385901060        1.22530912887864        0.51849435537740
C           -0.60522049736535        1.08142289219197        1.74400482992359
C            0.75057049567557        2.68392232983251        0.37590108346866
C           -0.46005115452167        0.77801240910563       -0.72249316710497
N           -1.68787358695192        0.42950772293394       -0.61746894373433
C           -2.40267337210703        0.04699633297089       -1.74610463445244
C           -3.73558902824782       -0.28989928193149       -1.61890064380004
O           -4.65603913072987       -0.63368964046448       -2.27629411764930
O           -4.18584483911217       -0.10551020786611        0.01316470098129
C           -5.59844149844959        0.13856915544218        0.10017755861175
C           -3.74072785495976       -1.21359185814840        0.81288996177878
C           -1.81117226437026        0.00155592997101       -3.06179338366894
O           -2.39203849150524       -0.33865780771370       -4.08543821385075
C           -0.35058297872205        0.42390868610745       -3.12033143220855
O            0.29969325616574        0.44219333244092       -4.15008163234590
N            0.20332631145459        0.79571354903687       -1.92541379135092
O            4.79727693695131       -0.81124417397870        0.11158773008939
H            6.83764550119907       -2.47757090597600       -0.43074180208795
H            6.84202572039090       -3.20556871904462        1.19598221454973
H            7.39916347275615       -1.53679936017243        0.95257419924190
H            1.38024602865266       -0.29644296683804        1.52163973227227
H           -0.07582241533172        1.40659177507613        2.63736744180887
H           -0.91072007614040        0.04374511664044        1.86714474617330
H           -1.49823559467993        1.69045574898625        1.61598584057355
H            1.35151176872929        2.83000483509892       -0.51887778209638
H            1.33838923729502        2.96846046496015        1.24672597808719
H           -0.12853160741711        3.32383840327845        0.31754794883694
H           -5.80076217411939        1.04994305367543       -0.45998112466113
H           -6.15764112828314       -0.70164672429505       -0.31768492177221
H           -5.84783124817861        0.27610559509713        1.15047776669781
H           -2.65770844946411       -1.25797273291886        0.71239794437800
H           -4.20499080075481       -2.14308727172087        0.47628705684075
H           -4.01108039245995       -1.00826399565971        1.84800186505248
H            1.18104352445330        1.07433750730416       -1.93789541679137
