43
 energy: -76.186172479019 gnorm: 0.000485175389 xtb: 6.5.1 (579679a)
C           -4.06430716525380        0.74710861786825       -1.99199920002181
N           -2.72017298981873        0.20937805781125       -1.75945752221911
C           -2.22505993454533       -0.11245608953365       -0.52510130747877
C           -3.02586489003214        0.06601071151656        0.76012439964865
C           -2.27674945576188       -0.60913384688886        1.92032235676354
C           -3.17999791658862        1.56380069431793        1.06181773617805
N           -4.34908942769551       -0.54064277965166        0.62426372581742
N           -1.00981829534106       -0.54724276648833       -0.37874698661241
C           -0.19408591589048       -0.71706130990842       -1.45951471628453
C            1.17952334193343       -1.21207640709253       -1.20282988673570
O            1.98755422192625       -1.40037587767805       -2.11884253099913
N            1.46241293666637       -1.43774359594730        0.08669414927772
C            2.77199996612947       -1.90769602034170        0.51891756018736
C            3.67653225712550       -0.74605110895202        0.87427943759919
C            4.16182417281591        0.09013524829588       -0.13047506655926
C            4.98640646369785        1.16121498451125        0.17995379723648
C            5.31441799751235        1.37384539357786        1.50727509999672
F            6.11517332567917        2.40733057864204        1.81615167803555
C            4.85319816005979        0.56380536589355        2.52809336687466
C            4.02550209879248       -0.50206235972466        2.19943636928819
C           -0.62334036002581       -0.43052640271418       -2.72829355043524
O            0.13681115049897       -0.58704483446968       -3.82015370054862
C           -1.96791940486230        0.09067326870323       -2.92967602598360
O           -2.44467756530612        0.41702762756364       -4.01042861965959
H           -3.99598202775049        1.82275964266217       -2.15926508730466
H           -4.47264098963224        0.27418520317148       -2.88625236759661
H           -4.70603107159836        0.53395365129641       -1.14359243580214
H           -1.31158409323380       -0.13246747089971        2.08331131001148
H           -2.87123982951040       -0.52813657445062        2.82851246621632
H           -2.11304597492914       -1.66229184185339        1.69840934065694
H           -3.65480898982234        1.69119325428907        2.03360262515834
H           -2.20050590156283        2.04050225082290        1.08502037628045
H           -3.79387251099557        2.05601245308889        0.30992586540019
H           -4.25252554046199       -1.54592133156079        0.56956972766991
H           -4.88741404069026       -0.33087887571379        1.45325103737813
H            0.76252573488023       -1.22510710714330        0.78198878903868
H            3.20459497735147       -2.48452054990549       -0.30542773227441
H            2.62959336490932       -2.56271263593151        1.38097013757545
H            3.89492240195793       -0.10032030235708       -1.16353240426409
H            5.37099188758916        1.81807532100735       -0.58944876858921
H            5.13338252828353        0.76239114070476        3.55406942878393
H            3.65318004466218       -1.14806172996850        2.98537870742897
H            1.02018625883430       -0.93555164656298       -3.53830357914016
