42
 energy: -83.588849399402 gnorm: 0.000921879561 xtb: 6.5.1 (579679a)
C            6.98640967080032        0.96498349611669        0.79777358720663
O            5.82942054174542        0.16434204056204        0.95637917093888
C            4.79289921093121        0.44854557569656        0.10659312769643
O            4.91101309451098        1.35885961454994       -0.71586447506908
C            3.62499916950111       -0.38724121630153        0.26700111633919
N            2.60538524363877       -0.06287639179438       -0.62021506714858
C            1.50335203451263       -0.71767961716394       -0.61117891785357
C            0.39387971859458       -0.42945536007412       -1.60954396188863
C            0.57867060335923       -1.41459290797493       -2.77941648431212
C            0.51640844154173        1.02150650111629       -2.10414716535528
N           -0.87412063136828       -0.68703936428308       -0.92266183080878
C           -2.10329080268210       -0.28838756942787       -1.63090543442172
O           -2.16311412494442       -0.34857658383150       -2.90730600599292
C           -3.09346851233741        0.04979622441278       -0.75705820899160
N           -3.00557039620982        0.13833295376702        0.65324527956501
N           -4.20921009595421        0.56863980643371        1.01111841768811
C           -4.48938238275750        0.78660205877092        2.41027098368760
C           -5.04331472895032        0.76013126005112        0.01270775265007
C           -6.45326877979144        1.21996395281703        0.08096914414146
O           -4.43949789151818        0.45089823010405       -1.17026563455655
N            1.29210137834471       -1.76950275855838        0.25441971907242
C            2.20459480693536       -2.19238160386877        1.18628772899573
O            1.92270839165155       -3.14258494627732        1.92963855525666
C            3.50620021844367       -1.44423470404800        1.21480979660484
O            4.38033351065965       -1.78851942021352        2.04484331340194
H            7.40093816128143        0.86182402215103       -0.21126351217930
H            6.76005070159774        2.02237484201767        0.97419764823978
H            7.71922581509163        0.62278465183523        1.52837800737767
H            0.43548791385499       -2.43563803431060       -2.42543648800776
H           -0.14162844996355       -1.21403079708803       -3.57101009160159
H            1.58633807053026       -1.31943547761711       -3.18543833716493
H            1.51550151163744        1.18735724451293       -2.50853361359944
H           -0.21994706631751        1.21941442738695       -2.88195487382634
H            0.35676770057527        1.71430003305015       -1.27738935591166
H           -0.86992795017100       -0.21018147749790       -0.02140864555616
H           -4.67938295290349        1.84457541112022        2.58918561172643
H           -5.36574154272872        0.21148614079996        2.70598529374052
H           -3.62216590640137        0.46466453902873        2.98300480257356
H           -6.53256343022613        2.16525165116247        0.62055557261403
H           -7.08545202379179        0.49130344453052        0.59394505213983
H           -6.83146581445586        1.35817926797657       -0.93010478712948
H            0.39982657372591       -2.24375915964151        0.22412920972115
