42
 energy: -83.571982789194 gnorm: 0.000683435674 xtb: 6.5.1 (579679a)
C            7.06425518609598        1.75919686160674        0.57460433930850
O            5.72331010941534        1.90773594463063        0.12560545992921
C            4.86174577199255        0.90304234944524        0.51437191692223
O            5.27899760396904       -0.02826935172927        1.19934418252204
C            3.49305484985530        1.06459969819663        0.04354713105028
N            2.65418093980438        0.05098952516364        0.44275264562907
C            1.39651126061926        0.10453452892838        0.05389247957114
C            0.49333991439851       -1.02645653234847        0.56034462999016
C            1.25874827904179       -2.35685781059580        0.48237169619923
C            0.15115015261731       -0.69680509807189        2.03067742658960
N           -0.69316158664171       -1.08580042916538       -0.28877567928796
C           -1.84059900065400       -1.82472656769606        0.18066318549443
O           -1.69600380097998       -2.86053902354452        0.91258452651340
C           -3.02314502633633       -1.33369597033039       -0.32209354944681
N           -3.21186665150792       -0.19430341702951       -1.12126788766749
N           -4.52678958802868       -0.13363104524636       -1.27931218805693
C           -5.09966578311553        0.93341145361566       -2.06389640250840
C           -5.19159800861219       -1.10325794859345       -0.68636675186512
C           -6.65944648034687       -1.31833497764021       -0.66392734828046
O           -4.32515528923940       -1.93487831122014       -0.04060464122411
N            0.83270082403335        1.05434729971158       -0.68534281842422
C            1.58704219752834        2.10333153824832       -1.12855683530546
O            1.08974356687106        3.01243718630913       -1.83160358464556
C            2.99220515103477        2.09847824734311       -0.73672513630995
O            3.73315376583343        3.15985334072425       -1.19324043241171
H            7.10541882903687        1.73720714777573        1.66824653489919
H            7.62477581601684        2.61509327686546        0.20331040921798
H            7.50191198354276        0.83419073511220        0.18573045078839
H            2.20198365476194       -2.27343483807217        1.02354756839999
H            0.67099586317621       -3.16557467631290        0.91588608037536
H            1.47301802410054       -2.59815342658675       -0.56016834672945
H            1.07442437970850       -0.54596827856669        2.59118583722985
H           -0.41078421997709       -1.50926057551111        2.49112856571615
H           -0.44129536601218        0.21752922774622        2.08132093742912
H           -0.96296745621422       -0.14099602895976       -0.57371489472149
H           -5.56535985487895        0.52433993590618       -2.96001245239964
H           -5.85390193006379        1.45583844774274       -1.47775497268064
H           -4.30296794793785        1.62005487784651       -2.34237630862797
H           -7.16586043297184       -0.55840922225736       -0.06356160020813
H           -7.07559846206781       -1.27615410012418       -1.67147224310311
H           -6.86986332240974       -2.29594998110271       -0.23455390619527
H            4.65336508454927        3.10524598778252       -0.89753002367781
