42
 energy: -82.955082847774 gnorm: 0.000394542929 xtb: 6.5.1 (579679a)
C            6.60311108913841        1.07289490782766        0.32023398274212
O            5.36174573034421        0.56746112698517        0.80820537696312
C            4.38328134900611        0.42901920892232       -0.09432560008953
O            4.53623191818292        0.71554653165791       -1.26706746114441
C            3.11734929719571       -0.10008057127556        0.45847872446402
N            2.14350368331061       -0.23340196103982       -0.47679463037564
C            0.97652591381378       -0.69302420137385       -0.15487616988420
C           -0.09250393790232       -0.87535072088512       -1.20080192156590
C            0.26902735261727       -0.12413326337130       -2.48240873855447
C           -0.31300367630735       -2.36629896939493       -1.47089635913848
N           -1.36081217322640       -0.34537086448821       -0.65667722654592
C           -1.39952375384648        0.86937458087034       -0.12017275193388
O           -0.45126201627013        1.58982964535685        0.08393854022551
C           -2.84686055707306        1.35021729929264        0.29241979424841
C           -3.16905322205484        2.61092314643881       -0.50800432010243
N           -2.83636299419272        1.55078708684249        1.69985829117397
N           -3.66845392867500        0.72072194127892        2.24415533188387
C           -4.24379765463747        0.00623552021231        1.27889637505022
C           -5.26136865162053       -1.03697941288364        1.45953093335079
O           -3.80351153328426        0.33442223849331        0.08225587764621
N            0.67633636231173       -1.08967195755685        1.11666365526459
C            1.54739958776565       -0.98812867465743        2.18091249894858
O            1.19461430888142       -1.33122077375420        3.29597268904450
C            2.91790904388276       -0.43734065896261        1.83984668725453
O            3.75412117992818       -0.31983185086973        2.73785911627991
H            6.98585330933963        0.43319619109661       -0.47923915810582
H            7.29403711789642        1.07659913696566        1.16140975033587
H            6.47385498117434        2.08754027926755       -0.06566018360499
H           -0.53399203638991       -0.22726529444226       -3.20809439568841
H            0.42621954374279        0.93167788045421       -2.26556586263307
H            1.18660854792831       -0.53985233536211       -2.89628935203482
H            0.60779544842348       -2.81101255134302       -1.84517154163756
H           -0.60911648009703       -2.87676361700711       -0.55657101691695
H           -1.09563805519085       -2.49436225648231       -2.21548604532987
H           -2.21022371268431       -0.83422977025354       -0.87636502640194
H           -4.13521953603983        2.99549343294248       -0.19062086780938
H           -3.20595812500196        2.36427234657795       -1.56606909497761
H           -2.39228926953858        3.35077280780127       -0.32465934867192
H           -5.26585761777897       -1.38617982465031        2.48967196048631
H           -5.07795512244747       -1.86151280911296        0.77257556775120
H           -6.24380994298610       -0.62261861299863        1.22108172252726
H           -0.23895076763880       -1.46235335714050        1.30938919749951
