42
 energy: -82.990605239259 gnorm: 0.000735668834 xtb: 6.5.1 (579679a)
C            5.07399163144911       -1.79462843033163        1.10978850692671
O            3.82376108129918       -1.15916302658174        0.83294831445140
C            3.75730285799452        0.16138769610231        0.81318401423341
O            4.88602641859699        0.75735117001149        1.13148301955895
C            5.25402991163744        2.09140111495575        0.76756424400875
C            2.53169997051641        0.73368175624068        0.44003413177094
N            1.64144727104704       -0.19074596986168       -0.10719123502354
C            0.49149091764830        0.17829439805499       -0.52761948933227
C           -0.43536734180277       -0.85017741834866       -1.15781361605741
C            0.16705605333026       -2.24604435450980       -0.98673763481673
C           -0.62911821350944       -0.54539495642681       -2.64887188476446
N           -1.72579055481472       -0.86037762975138       -0.45408824072153
C           -2.71620962357454        0.04091432856871       -0.58966489565673
O           -2.66756609176224        1.06763324556539       -1.24949076585652
C           -3.90502307494438       -0.35600773530973        0.20566493464364
N           -3.98954092555064       -1.38490462702007        0.99487235338791
N           -5.24075719076023       -1.36609581413266        1.53171189624063
C           -5.84102090700316       -0.32644667258724        1.03474921015262
C           -7.22395606960966        0.12767961355072        1.29818205731160
O           -5.04810919135063        0.35226416370379        0.19323870862025
N            0.06716632158729        1.48464324856772       -0.47516293715886
C            0.78705397729520        2.49521446809443        0.09786864383832
O            0.36871592285870        3.63917817277703        0.11493639271934
C            2.12362178091347        2.08725816462994        0.69656787111400
O            2.73998989850603        2.90007039108532        1.38481740378994
H            4.89457095233951       -2.86448320473253        1.02298955452370
H            5.40993127030485       -1.54890205346332        2.11927342139038
H            5.82757729657171       -1.47682028024587        0.38650822940936
H            5.02420755836977        2.77757048666871        1.58448789639660
H            4.73929321210413        2.40179283971576       -0.14210629841366
H            6.33090535077967        2.06630972529305        0.59763135304856
H            1.12949535230389       -2.29272136512030       -1.49300519206803
H            0.32080732724757       -2.46495719725856        0.06902835504405
H           -0.49798052628189       -2.99261024368496       -1.41640183670700
H           -1.00107533702779        0.46490249539946       -2.80325088662392
H           -1.33655846444939       -1.25272721229837       -3.07784226230215
H            0.32808947578612       -0.64768735049264       -3.15778881993621
H           -1.91270786041367       -1.66598150384002        0.12489798202643
H           -7.68119127782423       -0.51186403411649        2.04984129937365
H           -7.81007038290164        0.08443097460591        0.37950416786299
H           -7.21869320090188        1.16044737480223        1.64710222271668
H           -0.83749657599904        1.72631825171812       -0.87045218912803
