42
 energy: -83.631792485435 gnorm: 0.000798949453 xtb: 6.5.1 (579679a)
C            5.50598880700450        0.78653867834947        1.92961602533999
O            4.32349032383991        0.45527338671486        1.21082772411929
C            4.12690634707027        1.11770922631169        0.05891354088480
O            4.92717230936566        1.95870772765111       -0.33444341611116
C            2.90106863316693        0.73829481377401       -0.65167034429739
N            2.11513759212446       -0.22255453099048       -0.08080735229363
C            1.01380517996620       -0.55067490823566       -0.72839339047889
C            0.14932538151381       -1.67281883080749       -0.15003245624223
C            0.57833910275748       -2.02539749709527        1.27571883144066
C            0.38179764990040       -2.90145686176639       -1.05981213449153
N           -1.27970351979997       -1.35165111566004       -0.26545906359166
C           -1.88584334680191       -0.45232012372921        0.80385378198217
C           -1.24577963972649        0.97842106200719        0.71005215114277
O           -1.90752986568675       -0.95859500152075        2.00705750275077
C           -3.35702643321800       -0.28716375335948        0.25725627534337
N           -4.08748639564888       -1.17761547226906       -0.34216679291266
N           -5.35514795949101       -0.64038899016407       -0.47673746170352
C           -5.30663608701958        0.53312733071983        0.05606886522577
C           -6.40961348067830        1.51818814205717        0.17528759879518
O           -4.08316728001081        0.82266941410166        0.54014209405602
N            0.59244958048203       -0.04597096916135       -1.88884402712843
C            1.31835828190896        0.90578395212510       -2.53090514823000
O            0.96405620513794        1.38926702349556       -3.62318343806906
C            2.55740432343849        1.32066182113157       -1.85319167059959
O            3.30789588096399        2.27008663716530       -2.46686744045514
H            6.39066098950019        0.60803787927493        1.31255103269260
H            5.49002335917259        1.83816357529238        2.22878510128752
H            5.53230391311553        0.14847724039297        2.81129735554966
H            0.56231781028966       -1.14852400720025        1.92230188380247
H            1.59731503966014       -2.41588658948595        1.25886132226137
H           -0.08421506365213       -2.78154560638365        1.69794814629344
H           -0.23886594813932       -3.73439294182647       -0.72884957358160
H            0.11739962786453       -2.65336561131220       -2.08834362617341
H            1.42833258070983       -3.20502882051020       -1.03211323721951
H           -1.39415964111138       -0.87489719665603       -1.16474095000621
H           -0.21412114167739        0.93664031224950        1.05367126553047
H           -1.80423183357460        1.64213562778964        1.36830457037137
H           -1.27734616628483        1.36671956900242       -0.30707202178890
H           -6.66188589254918        1.67869688944227        1.22357271898251
H           -7.28669656518908        1.14771463914974       -0.34963133201871
H           -6.11049192864837        2.47580584597833       -0.24978938036351
H            4.10839926995430        2.46312803395868       -1.93979453009086
