20
 energy: -38.324799811168 gnorm: 0.000769007111 xtb: 6.5.1 (579679a)
C            3.60359000650665       -0.23666545701364       -0.45066907208705
O            2.23660483979235        0.10349865556486       -0.52775593663376
C            1.37053149633449       -0.77690538265004        0.19890268613242
O            1.87621562614688       -1.76109203440281        0.79378148105115
C            0.10151771329704       -0.26076463203321        0.28432300416183
O           -1.00294275935391       -1.04372595092571        0.74559986452362
C           -2.06112723471092       -0.54746114263646        0.10066512530093
C           -3.39541892649077       -1.16553898154505        0.34660964518004
N           -1.86120519978664        0.43656806878648       -0.69070707141624
N           -0.44927222960552        0.73698446825400       -0.63930304130376
C           -0.32017128624159        2.10574883786057       -0.11157609918006
H            4.15748882255123        0.49883856280397       -1.03800962379431
H            3.79564891156264       -1.23814827328432       -0.86024399923318
H            3.96809469726532       -0.21358612287097        0.58553993627939
H           -4.16411840112113       -0.59633230903413       -0.17059866628385
H           -3.60801101282006       -1.17547355514234        1.41492351292027
H           -3.40836994649811       -2.19548070547165       -0.01040354732126
H            0.74193249836116        2.33706494554984       -0.05160603920225
H           -0.80852429895049        2.79381825920830       -0.80066999361546
H           -0.77246331623837        2.19865274898250        0.88119883452113
