33
 energy: -58.509950169814 gnorm: 0.000917160355 xtb: 6.5.1 (579679a)
C            4.87308898807743        0.09885178160687        0.71059646179832
O            3.72197086641204       -0.37798529141554        0.04231920234709
C            2.53915227648797        0.34768589669263        0.32746644597305
O            2.61417735606177        1.31352411909903        1.12854855129142
C            1.43711939593042       -0.13337673041868       -0.35432670918782
C            1.40697746534708       -1.28807370314377       -1.27853965786719
O            2.42911942728594       -1.39779990634786       -2.25489905573899
C            0.31375831117394       -2.08136447781999       -1.32880046087558
O           -0.07660762121530       -3.04224204538437       -2.04151004354624
N           -0.69772051012901       -1.65115969751803       -0.26804268147197
C           -0.91641018344648       -0.32871499023801       -0.09845916914568
C           -2.33995427401831        0.15871143532904        0.17197147953752
C           -3.38385083273082       -0.94112666859551       -0.08094354550200
C           -2.45992878971895        0.61184561431116        1.63449544757548
N           -2.64257785451236        1.29265777428724       -0.70723844170307
N            0.14722371485215        0.44645968104586       -0.09652399998455
C            0.11564440617966        1.88817757797612        0.13907266546904
H            4.73599402133242        0.08954812657926        1.79930136474123
H            5.11940917941279        1.12295590651748        0.40223519190708
H            5.70099703315693       -0.56213188513548        0.45052122274342
H            3.28824885127388       -1.33107786262953       -1.81111505456564
H           -1.52437277093745       -2.22513733473136       -0.34219996346180
H           -3.29681518006571       -1.33864743835553       -1.09126727976958
H           -4.37600348467253       -0.50618171005786        0.02727495372824
H           -3.28963110329539       -1.75193930978028        0.64027990947529
H           -3.49528203507688        0.86865389921645        1.85191083716769
H           -1.84196967746694        1.48547209747467        1.83121849285687
H           -2.15412678247432       -0.19553562326340        2.29929389196157
H           -3.50380998357976        1.71627091038321       -0.39644496310165
H           -2.79976861460515        0.95618959346157       -1.64833199848241
H            0.91305346362295        2.35693693312542       -0.43723569539718
H            0.28287096465545        2.09462018563071        1.19768120049797
H           -0.83997902331849        2.30393214209977       -0.17118459927019
