42
 energy: -83.597789410139 gnorm: 0.000373065511 xtb: 6.5.1 (579679a)
C           -5.49413116967708       -0.27879639489171       -3.16052430904919
O           -4.75290216263416        0.47641738234387       -2.20335575873240
C           -3.70635763377256       -0.17070527373526       -1.62800522132580
O           -3.44270401908702       -1.31806890021937       -1.93051009710518
C           -2.96531374755344        0.63670491490463       -0.64077183239511
N           -1.88561415594299       -0.01622473990264       -0.11373500519585
C           -1.16404183784356        0.61941996985418        0.78816639105505
C            0.04241588438881       -0.11089439578302        1.37208142874537
C            0.04814116333643       -1.58144143047732        0.92692630783024
C           -0.02239205677230       -0.01697493574182        2.90277150799312
N            1.25979680416718        0.59479934394450        0.89763882028488
C            2.49992735652422       -0.02274242933314        1.33117540647187
O            3.03825780628980        0.50632213360471        2.52620526164769
C            3.86012534758002        1.65401439112232        2.36841261067778
C            3.33934860507290       -0.63336743225964        0.43105253145863
N            4.63035033113983       -1.00879811964395        0.60315030198906
N            4.98111320198380       -1.69491875049464       -0.54580240544817
C            3.96023424058865       -1.71464979505499       -1.32597690874876
C            3.86333145380106       -2.33526776129221       -2.67497049211059
O            2.86503289492262       -1.07043664586876       -0.79990082642268
N           -1.38540521593453        1.84873372045034        1.25120909292552
C           -2.43391892601812        2.57275707611263        0.78507224132364
O           -2.67691167509963        3.72565356597064        1.19537984101805
C           -3.27151975698764        1.91683388498187       -0.23273478487634
O           -4.31889384368656        2.65872414882091       -0.68694013278921
H           -6.29306973028510        0.36398967430807       -3.52266780350153
H           -4.84865097517804       -0.57798251378797       -3.99076789238600
H           -5.91564627997055       -1.17322719185340       -2.69410588118216
H            0.14545956577289       -1.64404625935835       -0.15706537442354
H            0.88471832130668       -2.10881395685727        1.38701019782666
H           -0.88254545584268       -2.06648168218991        1.22127671787333
H            0.83896867442236       -0.50904582969412        3.35466660834548
H           -0.02949879448723        1.03158333605278        3.20543274922625
H           -0.93113360760562       -0.49503272332699        3.26981344874249
H            1.23771856857852        0.58110112269656       -0.12276506025103
H            4.75845746700418        1.41995639922318        1.77805548499513
H            3.31945328549199        2.47549709519099        1.87567375422121
H            4.16858041236842        1.98096743021715        3.36516445368594
H            4.82669493915728       -2.76498979600830       -2.94234834946341
H            3.10790477018021       -3.12327219899461       -2.68862304654807
H            3.58601319501257       -1.59152358205206       -3.42410619898733
H           -4.84139224471110        2.18619414902973       -1.35065977743394
