42
 energy: -83.004727524406 gnorm: 0.000629512466 xtb: 6.5.1 (579679a)
C           -2.67589281984585        0.47229603982986        3.95986724533724
O           -2.68585327961897        0.74916633404368        2.54986488019972
C           -2.11701941887277       -0.13472231414663        1.76034207240769
C           -2.34046301412966        1.80523601239039        0.11134293121535
O           -1.61465325035417       -1.16706441251841        2.11495435759517
C           -2.19425309828135        0.29130519464823        0.26343996785363
N           -0.94854169544293       -0.14273922728519       -0.32266312773142
C           -0.82942461416193       -1.29700504626307       -0.83301599899170
C            0.51843702305321       -1.76108498025434       -1.35140272132191
C            0.45635066486901       -1.92207800266388       -2.87707957167503
C            0.92616976584271       -3.07239951181798       -0.66489508430532
N            1.47160219919800       -0.71222757921469       -1.00193631216783
C            2.78310919473424       -0.75933010143070       -1.29334573072964
O            3.34324621537925       -1.65785952653971       -1.90223263997937
C            3.52591462357921        0.42191061009099       -0.78226306370309
N            4.79624322038942        0.65979906488409       -0.88789248198146
N            5.02935188555695        1.84416608601364       -0.25534230502456
C            3.88710647596474        2.25636979414959        0.19861822239665
C            3.61145199724669        3.49184656503238        0.96354956239492
O            2.89345429138017        1.40280953138713       -0.10082815412887
N           -1.88182843599546       -2.19008038253945       -0.97712480384040
C           -3.18787938601770       -1.87793282385877       -0.74216371421853
O           -4.08809827172905       -2.66591490883814       -0.91981874596281
C           -3.41684926989505       -0.44041408959451       -0.25974947444434
O           -4.51479596937330        0.05037952692475       -0.26553003285689
H           -3.24656297119835        1.26857846292118        4.43171574109844
H           -1.64733221616085        0.47048390730608        4.32443234648178
H           -3.13548818145029       -0.49917627422155        4.15119185775363
H           -2.29311702817210        2.06414109018487       -0.94461690582056
H           -1.53339825006734        2.30700597382073        0.63879667566327
H           -3.29683339520826        2.12781470940124        0.51809772723025
H            1.41903941707380       -2.26861542946538       -3.24864025568210
H            0.21577828876705       -0.96710381936591       -3.34116547495791
H           -0.30722072419823       -2.65037560625538       -3.14162734874491
H            0.23004037495790       -3.86644524878075       -0.92546009838285
H            1.92170745701862       -3.36289608653949       -0.99576345230236
H            0.93076961846189       -2.93948238444414        0.41588247688951
H            1.09167345788032        0.08328167634323       -0.50413166776853
H            4.53874109954315        4.03637610920057        1.12501321181999
H            2.90998417423843        4.12091498057548        0.41607735024330
H            3.16141738082786        3.24229987593554        1.92412297413844
H           -1.70608353578650       -3.11930378903974       -1.32862043399922
