43
 energy: -83.872164194331 gnorm: 0.000715460065 xtb: 6.5.1 (579679a)
C            6.31604035843081       -0.18715132964405       -1.25236555970741
O            4.97638936695972       -0.06658008078277       -0.76873168644401
C            4.79545033663504        0.73296218972936        0.27626408473855
O            5.70913210160400        1.34882630924733        0.80110947175030
C            3.39517568379653        0.79799965194148        0.74942194870969
N            2.46579132655393        0.07555107137041        0.04878595781597
C            1.23382964881602        0.09871593765990        0.44906877132958
C            0.16795306267200       -0.71762292316240       -0.26532667098434
C            0.37959252276770       -2.17200849578918        0.18553745208720
C            0.38779574055568       -0.58243092458108       -1.78248617890521
N           -1.12288088674511       -0.18141111519389        0.16216812461132
C           -2.37465412100435       -1.02917657971365       -0.21141454845995
C           -2.87118812936447       -1.63206004386627        1.14376143562262
O           -2.22140126433798       -1.88372629890706       -1.17660057747917
C           -3.40396528859496        0.08325075399316       -0.59070606049034
N           -3.16322305694257        1.22433111758305       -1.15641189485429
N           -4.38573080060675        1.80705218319232       -1.42875376694572
C           -5.28079860411748        0.97488355463175       -1.01419121999830
C           -6.75501908893317        1.12811993626927       -1.07460760682178
O           -4.73396245782864       -0.13342842831383       -0.47625178230258
N            0.84855479824098        0.80121893189215        1.54685436963460
C            1.67666869528486        1.57109065879915        2.32718719375567
O            1.25495482524389        2.18344356365792        3.29818584005461
C            3.06408995242060        1.54760751295884        1.85410748295202
O            3.94019658351364        2.27580092954178        2.55880320154298
H            6.70161604278625        0.79337881733819       -1.54015087361145
H            6.27901670118500       -0.84839336699087       -2.11557476822836
H            6.95647670170777       -0.61174417688552       -0.47598655504490
H            1.39943795213392       -2.47665010811385       -0.04973146854392
H           -0.31580106244868       -2.83362957269800       -0.32916677265459
H            0.22882641754947       -2.25678219407213        1.26123342575799
H            1.40029358486620       -0.89522500956136       -2.03721814956419
H            0.25425381946105        0.45564871830821       -2.08710067411985
H           -0.32909675991022       -1.20421181943507       -2.31683010089443
H           -1.23498953721677        0.71766477506637       -0.31053755327633
H           -3.83344343876805       -2.11568204525175        0.98192880414999
H           -2.15627091407228       -2.37533903220497        1.49012418065103
H           -2.97472630382602       -0.85226571000145        1.89590597172677
H           -7.19281756271674        0.33541947199018       -1.68186891079653
H           -7.18162328335536        1.06223848026633       -0.07390265880525
H           -7.00238689044014        2.09343095253907       -1.51018492154418
H           -0.13900590438468        0.75150233799087        1.79286896695648
H            4.84144313243557        2.19537839920693        2.17459827663096
