42
 energy: -83.619709582157 gnorm: 0.000549386342 xtb: 6.5.1 (579679a)
C            6.13074485077205        0.02842844478091        1.97140708339551
O            4.87413798704151       -0.02630160722130        1.30505377327800
C            4.78027223815536        0.67473573263193        0.16304117625855
O            5.72963069547320        1.31941643337375       -0.26726878024483
C            3.46813509527878        0.59130693711489       -0.48732604864311
N            2.51782853511768       -0.18532520820202        0.11244346756946
C            1.33820962217083       -0.24171400496121       -0.47408065862491
C            0.26582180200488       -1.12816570571933        0.16163270762281
C            0.75316741226567       -1.66005297081080        1.51465612111053
C            0.01207643658888       -2.29502305819243       -0.81798290162321
N           -0.91732684717846       -0.28794314504931        0.34203716611427
C           -2.17966119025101       -0.91529941113147        0.63926460448716
O           -2.21701987864782       -2.03960067750326        1.23026122016765
C           -3.27121777698069       -0.08854798562251        0.47145740019673
O           -3.23638861859177        1.06661425412687       -0.37932278496085
C           -4.47491667838799        1.16820067154601       -0.86472484934919
C           -4.77841154572786        2.27922894416514       -1.81286089888634
N           -5.33527176574693        0.30451399927570       -0.47601245013239
N           -4.65445410761303       -0.58369482451874        0.43942871400371
C           -5.31732771377093       -0.44384109221218        1.74619425893382
N            0.97720835215858        0.38039925568186       -1.59475236249603
C            1.86265415618296        1.16536311096931       -2.26350179083159
O            1.56401875916869        1.75537739302461       -3.31865618620460
C            3.19936933400846        1.27065018389479       -1.65656203154937
O            4.10857585384590        2.04942889447735       -2.29448744582750
H            6.04340549467453       -0.58470293460142        2.86662537040686
H            6.92187890531423       -0.36189014797961        1.32581225510085
H            6.37317944698785        1.05864200298183        2.24577088850407
H            0.01357856550844       -2.32802520985545        1.95486055423154
H            0.92946886318911       -0.82762623394938        2.19707139456060
H            1.68866844925883       -2.20450152978960        1.38404384301372
H           -0.34562851455637       -1.90349758264795       -1.77127561411040
H            0.94317610502545       -2.83578844138197       -0.99010078526525
H           -0.72536666370694       -2.98829058541532       -0.41464505198263
H           -1.00709170773664        0.36172771245404       -0.43959654043585
H           -4.51645581857042        3.23427669609743       -1.35972742320246
H           -5.83819658769925        2.27449117911624       -2.05529043176160
H           -4.19924841245360        2.16878936898571       -2.72955620475762
H           -4.81716632097624       -1.11515676543999        2.44350263354178
H           -5.26006860410596        0.58378466338160        2.12097105471034
H           -6.36200528512060       -0.73504621092400        1.64251222701530
H            4.95802007763475        2.04466045504045       -1.81031867333855
