21
 energy: -30.770145964530 gnorm: 0.000732268267 xtb: 6.5.1 (579679a)
C           -0.14477439149452        2.20603883445919       -0.13082048918099
C            0.39917652697364        0.87552903419301        0.44771465505234
C            1.87089258932355        0.79582407994012        0.36350312921209
C            2.47560169077929       -0.34881063002742       -0.04535153472790
F            3.79971692727799       -0.41162215444798       -0.10392522763823
C            1.74785988376148       -1.48134105729162       -0.45156484585848
C            0.36560897079925       -1.46035952531751       -0.40746335205144
C           -0.33145719545745       -0.33145869772812        0.00197436447299
C           -1.81673888288034       -0.33417598419914       -0.00059430446851
N           -2.35275750009406       -1.67738637482757       -0.05251890116759
H           -1.19337397175711        2.32637575175037        0.12837038722268
H            0.42094568312046        3.03819253041182        0.28277490040114
H           -0.03623875754036        2.19680479068524       -1.21325570961921
H            0.18643190881069        0.94242915970163        1.53181996650447
H            2.44835018560565        1.66678220360785        0.64672344784582
H            2.28371653616868       -2.35451995682652       -0.80574146034363
H           -0.20219750399323       -2.32777371769041       -0.72777029230079
H           -2.20407070207208        0.23168976910793        0.85671670167590
H           -2.14018709299258        0.20548304080483       -0.90047882238207
H           -3.33867541070863       -1.63237258301372       -0.26524829175744
H           -2.23783149363029       -2.12532951329194        0.84513367910875
