46
 energy: -86.314743185295 gnorm: 0.000365343861 xtb: 6.5.1 (579679a)
C           -1.87766417768187        3.39510023239487        0.03447810493036
O           -2.06716051393540        1.95857508178726        0.00990092878891
C           -3.07759070398434        1.46262949934939        0.64471718029408
O           -3.93966271323822        2.00897247003126        1.25078761220062
C           -3.07618190438343       -0.15744625599612        0.52632031285958
C           -4.22223234066998       -0.67074675868075        1.40197506977208
N           -1.81107406050325       -0.54684487915493        1.03986694796685
C           -0.80999492452255       -0.85623976776693        0.30534830666052
C            0.42600758591317       -1.33112379207081        1.05846314329446
C            0.45693082157952       -2.86674125066293        0.97805644320530
C            0.33890979195685       -0.88421543012157        2.52460471465464
N            1.61810183441853       -0.73093825219816        0.46181169941453
C            2.88001782400460       -1.06481250173114        0.84522914799955
O            3.17197012409916       -1.97812182129650        1.59237561853134
C            3.89788693506206       -0.19597418157609        0.21156043108813
N            5.18257603237254       -0.22633557908242        0.37791718599756
N            5.70386738440478        0.75925664568363       -0.40262859681947
C            4.70612077206886        1.33283340925646       -0.99937037733934
C            4.74923230749304        2.45994764199214       -1.95490763710721
O            3.53183981385138        0.77599456943213       -0.65451990689721
N           -0.86681159945206       -0.87079309310162       -1.08945845880170
C            0.28340075367450       -1.12256049925411       -1.96480183644768
C           -2.03205025648226       -0.61771269625142       -1.75386950420707
O           -2.17097483150739       -0.62828872829092       -2.96201255413075
C           -3.21802123104007       -0.36845272047878       -0.89795981389319
O           -4.34450441106224       -0.27415416845981       -1.49028513247205
H           -1.29812977520755        3.65442677621507        0.92011569421839
H           -1.32619281063080        3.63722260686757       -0.87039087973301
H           -2.84736439546805        3.89296660228325        0.05133364393211
H           -4.21623594158908       -1.75791061404863        1.39087689698757
H           -4.07462431552755       -0.31610250489267        2.41954793130409
H           -5.17031164120858       -0.30189387556434        1.01696143270144
H            0.67563819877289       -3.20433765847967       -0.03208907756856
H           -0.51563027944221       -3.25457711666781        1.27645674947360
H            1.21571530433413       -3.25825670761338        1.65303711558538
H           -0.52804825637656       -1.33638120731562        3.00164304856968
H            1.24072215625912       -1.19766510991226        3.04839881099981
H            0.24948021060229        0.19894579062139        2.57697719970141
H            1.50069954435800        0.16084021028926        0.01147578101246
H            4.13494023038816        3.28107425018714       -1.58771015780343
H            5.77595805239476        2.79644853908808       -2.08030424819196
H            4.34679286323800        2.14549199939878       -2.91744962389001
H            0.78808477725958       -0.17729221196972       -2.15987571941471
H           -0.09615335069496       -1.53261154565827       -2.89971298400657
H            0.96980290173604       -1.82034488903907       -1.50005322732209
H           -4.25807978562285       -0.37185250753702       -2.46845041609511
