43
 energy: -83.873609913426 gnorm: 0.000264559204 xtb: 6.5.1 (579679a)
C           -4.79490732958093        1.90968118414996        0.43824016905981
O           -3.70031726360331        1.03778652139833        0.16626487010905
C           -4.01929308207160       -0.22778691660331       -0.16512565419552
O           -5.17612144578787       -0.59945455919615       -0.24262328106845
C           -2.80045562800627       -1.15229091044363       -0.28292846602375
C           -3.14058040618697       -2.32496227043065       -1.21162584620479
N           -1.66173469470220       -0.42420915098291       -0.83823350925763
C           -0.83331481786483        0.12903773957356       -0.03539760488276
C            0.30852948706420        0.95050833077671       -0.62234654431942
C            0.13020324746331        2.42086342150688       -0.22267725195198
C            0.34319494376240        0.79991555059381       -2.14580116243486
N            1.55437906277999        0.42282087221935       -0.04600283550383
C            2.77857839021224        0.89776491834838       -0.33190070886832
O            3.02910301292392        1.86482130055902       -1.03421054701935
C            3.82984837430469        0.07360215147861        0.32570250154397
N            3.62647709324997       -0.97086333787464        1.07119361522677
N            4.85407536764539       -1.43826824307064        1.43774171123300
C            5.72717655126790       -0.65009740097500        0.89066852983237
C            7.20148480258182       -0.73522819472901        0.98148681924196
O            5.14453207120342        0.32460001783524        0.17550294229047
N           -0.90353275596067        0.07897107955135        1.31974411406620
C           -1.65740739650764       -0.99036483882879        1.96497019474925
O           -1.36721775903244       -1.25782983674426        3.16447441803469
C           -2.55363539158419       -1.59012348432593        1.13774906270630
O           -3.34347740860194       -2.67510511145524        1.59461464070869
H           -4.37407105259829        2.88346918773959        0.68249284647683
H           -5.44212053389457        1.99396111402457       -0.43949884629414
H           -5.38482894172397        1.53517861584786        1.27996009237867
H           -4.04498456405510       -2.82517213541423       -0.86684082772749
H           -3.29748078551210       -1.96031872114730       -2.22641498332875
H           -2.31780828410887       -3.03846687129857       -1.21617999917047
H           -0.83951740719464        2.77265138891567       -0.57290535746211
H            0.91073875915483        3.03422149975505       -0.66887619382049
H            0.17470319725129        2.52564122715911        0.86012536932690
H            1.13966880051208        1.40727202777254       -2.57105704389378
H           -0.61166075063521        1.12158956524328       -2.55951975998124
H            0.50435248186273       -0.24380369996539       -2.41248126117798
H            1.49846860404607       -0.41013439128682        0.52420624475676
H            7.63242507564693       -0.81384084011804       -0.01623000259000
H            7.48125710611230       -1.60574245179296        1.56937692988058
H            7.59978999882222        0.16412130064909        1.45059771714676
H           -0.13127305644663        0.42983967692346        1.86175488898309
H           -3.07324767220135       -2.84425532534103        2.50807000943847
