42
 energy: -83.006146006551 gnorm: 0.000420981516 xtb: 6.5.1 (579679a)
C           -5.51513679895089        2.35312270454563        1.37890944804211
O           -4.67688538894473        1.38077254909916        0.73868797479428
C           -3.40040600806410        1.37712578209905        1.08235224900797
O           -2.90311994739585        2.13447744039212        1.87657441316242
C           -2.59034477026043        0.31533421319691        0.35334295411805
N           -1.43824470836694       -0.06229496200340        1.08157315224917
C           -0.51682651660311       -0.71699119530134        0.49549600878879
C            0.64378386955791       -1.26919170464887        1.29676828524614
C            0.66347805343500       -0.65371575577898        2.69880734944190
C            0.47925281282197       -2.79534667907084        1.36078504004872
N            1.87729585311047       -0.92332010618593        0.58087393944973
C            3.10309874483613       -1.31685844956506        0.99536545084436
O            3.32841183479281       -2.06578529280118        1.92980225875158
C            4.19008644256024       -0.74466422607590        0.16252183838734
N            5.46718959832152       -0.93282814330798        0.28424876264026
N            6.06773951332662       -0.20639057257413       -0.69954154582027
C            5.12049405248912        0.38117217518278       -1.36207719256496
C            5.25061343969574        1.27627534359398       -2.53198581063512
O            3.90753905519177        0.08390025590455       -0.86679369140662
N           -0.50139915824813       -0.97423016772881       -0.86105427658539
C           -1.35594991299988       -0.37173429321211       -1.75399082794074
O           -1.09440466465767       -0.29614101028098       -2.93470787370310
C           -2.60672669491000        0.18817173632453       -1.14289541128173
C           -3.43426897786147        1.06220288466752       -2.05414052743022
O           -3.28344186958526       -0.70695315422042       -0.29503107090570
H           -6.49076635968284        2.28068164528392        0.90417511047352
H           -5.59117539622421        2.13034045629405        2.44498550091541
H           -5.09583852919025        3.35173736474859        1.24336300888625
H           -0.27864747322304       -0.86656052159837        3.20151945688306
H            1.48227063669839       -1.07651070265002        3.27781645216404
H            0.79025029733608        0.42529695179010        2.62882779852865
H            1.26193794541346       -3.23250982798140        1.97722035712226
H           -0.49021040134906       -3.03466857066431        1.79543550734011
H            0.53479740491789       -3.21876616746270        0.35978315723200
H            1.82914920081027       -0.21364065188596       -0.13091782928646
H            4.76626915050801        2.23047875951840       -2.32662047452910
H            4.75869009892649        0.82922343627574       -3.39604403577396
H            6.30255342689797        1.43809026396186       -2.75520823339948
H            0.33140167965854       -1.37425303238261       -1.26650534720148
H           -4.42639415640621        1.21341940344123       -1.63805692837883
H           -2.94421678467054        2.02461848869852       -2.19107247627322
H           -3.52189559371276        0.57691133236075       -3.02607392140029
