46
 energy: -86.312192779946 gnorm: 0.000386031327 xtb: 6.5.1 (579679a)
C            5.84722539602579        0.51414092488767        3.10385147560814
O            5.06797000799845        0.63936098965148        1.90231599785289
C            3.90445846697401       -0.02131194439828        1.89025909592492
O            3.51549295649360       -0.68935417655112        2.81676178948061
C            3.14225301384016        0.15915855173198        0.62171494679051
N            1.95116471331717       -0.51190712444520        0.61366191320241
C            1.15341536465386       -0.46405291147154       -0.40032034207258
C           -0.10399825313202       -1.31524310909974       -0.28309847357530
C           -0.05929645703102       -2.47474366578920       -1.28388377487908
C           -0.22878735119779       -1.85507405073939        1.14607663442649
N           -1.27166711498042       -0.42951337440012       -0.52466249793006
C           -2.49959724064676       -0.89919823235508       -0.64935702690576
O           -2.88996534841456       -2.03048155463352       -0.70012362545610
C           -3.60366256735318        0.27917814130999       -0.79488101764857
C           -4.48909897617743       -0.08122385875001       -1.98410694831591
N           -2.98825218228489        1.53878611709493       -0.87086811495101
N           -3.25799022694133        2.21658682170068        0.16650572524645
C           -4.08489870414231        1.45819937838373        0.95587747241387
C           -4.64337991514763        1.87564894102526        2.23760028938379
O           -4.31770770799799        0.31704400322871        0.41952076578401
N            1.45450188990715        0.26248325004162       -1.51963093457539
C            0.60962413669004        0.37730548867582       -2.70991720605315
C            2.64997443746291        0.97581139635069       -1.63543546027594
O            2.89667569838723        1.60149490586100       -2.65271081191721
C            3.52678455941345        0.90100582368703       -0.46521141444544
O            4.66085707164112        1.59328233744072       -0.58485991392121
H            6.13290189267856       -0.52967657775599        3.25077134190012
H            5.26249515408048        0.85788055226921        3.95959335608696
H            6.72873952419006        1.13597852122638        2.97026573765064
H           -0.84458202078892       -3.19474897337298       -1.06187377155902
H           -0.18528426932194       -2.12705052059631       -2.30572296266672
H            0.90607418881785       -2.97211000860624       -1.19640431797270
H           -0.24311526353513       -1.03073342731849        1.85632097309744
H           -1.14971761902005       -2.42705977753145        1.24025102875093
H            0.61988099648128       -2.49921495052632        1.36940339633451
H           -1.14175533961448        0.56264247822831       -0.40055474564269
H           -3.89582346117973       -0.03416842814169       -2.89414236465207
H           -5.31399849158265        0.62557509483095       -2.03914019459359
H           -4.86838304635059       -1.09134251766581       -1.83788553920593
H           -4.93210294606396        1.01182139131404        2.83358981297121
H           -5.53974217982581        2.47214592181974        2.03795854706832
H           -3.93801075872689        2.51342277428772        2.76885799276299
H           -0.38379898453824       -0.00422264840431       -2.51730417178061
H            0.54958107558148        1.43192516607685       -2.98007343344061
H            1.07440670545206       -0.17344825984635       -3.52824678393537
H            5.22014017589110        1.53500412124330        0.20984155563187
