16
 energy: -33.367891017362 gnorm: 0.000647166091 xtb: 6.5.1 (579679a)
C           -1.39378803813548       -0.88649292843322       -1.12723337303944
C           -0.57181085830644        0.16819845707626       -0.36612879201502
C           -1.46948712937832        1.12700507570310        0.43480462136215
N            0.27879382804853        0.88297246145947       -1.24466216485091
N            1.48695062666548        0.69225432415530       -0.93999622762543
C            1.50560613567926       -0.15309879373144        0.14446002099311
C            2.75224166932358       -0.65401118867123        0.86635834210886
O            2.68762819825577       -1.53810279734877        1.65751946468005
Cl           4.15005216049576        0.18680301300626        0.42563821819070
O            0.33981267638995       -0.47970413483138        0.51122295068147
H           -2.05123378455391       -0.37410163462996       -1.82520045538791
H           -0.71535661247535       -1.54537953032995       -1.66479136638321
H           -1.97704815096477       -1.45615437794048       -0.40770811862314
H           -2.03974634125075        0.54472322418542        1.15478454460605
H           -2.13890777266984        1.63352603949491       -0.25598226709689
H           -0.84370860712206        1.85156379083594        0.95123060239930
