42
 energy: -83.019046590115 gnorm: 0.000600045394 xtb: 6.5.1 (579679a)
C           -6.03427326478096        0.07433689000822        1.71761996510712
O           -4.90351894330386       -0.24406305315788        0.90192870853847
C           -3.82344382153617        0.51711428872769        1.06555709921517
O           -3.77996526384339        1.43480066776252        1.85524623561288
C           -2.66838869287570        0.14550137660686        0.19261657671027
N           -1.58996032850963        0.96879165986813        0.38797317418736
C           -0.50856765894686        0.78265755883605       -0.28886900369872
C            0.66597669696209        1.72943834016422       -0.09500703274467
C            0.32933508636045        2.73212585566370        1.01023506896723
C            0.96833392821985        2.47114005936602       -1.40378566930686
N            1.84567849676049        0.97896452241770        0.35819679066598
C            2.61842987685246        0.18337524481595       -0.40520768614808
O            2.39744619444900       -0.12819659504928       -1.56567004091815
C            3.79227055533244       -0.30612925361932        0.35749856492768
N            4.04843148366970       -0.06271276443824        1.60811647173996
N            5.21182916368387       -0.70493244644498        1.90256099824751
C            5.59325317199640       -1.29905926005941        0.81140269090904
C            6.80808207492597       -2.11798184564143        0.60650712424445
O            4.73683434936864       -1.08586020528748       -0.19774472860245
N           -0.40500763720223       -0.21821094851355       -1.20170990078310
C           -1.40526552559904       -1.11973058467964       -1.48650139357652
O           -1.21802955921649       -2.00344981719505       -2.31192058269603
C           -2.63369607955711       -0.88879095193789       -0.71739278154868
O           -3.71572613790566       -1.66332400022627       -0.87672468451354
C           -3.77076795781271       -2.74791794656890       -1.80335250851674
H           -6.34899428165576        1.10528323642952        1.53940066437608
H           -5.78175013790634       -0.04830485737507        2.77361894051283
H           -6.82595861963876       -0.61660648483366        1.43629434752740
H           -0.55222787287224        3.30512864068320        0.72767279866704
H            0.11920810123663        2.21056050375350        1.94302615148473
H            1.16462879787339        3.41349145844207        1.15849010303792
H            1.85013475138662        3.09557943507453       -1.27190513321374
H            1.14735771186648        1.77640434654688       -2.22128562048238
H            0.11952444570674        3.10333759431122       -1.66012792693596
H            2.16055358499943        1.16072095807093        1.30035255445918
H            7.25348200610984       -2.36065464924929        1.56789371865158
H            6.55611181674896       -3.03247883587850        0.07212310373910
H            7.53090367762382       -1.56407381341201        0.00715830381311
H            0.47203836610655       -0.34404288166458       -1.70426137235014
H           -4.77702713855503       -3.15823366314493       -1.70921504555586
H           -3.61062764679756       -2.40163794209652       -2.82667981267939
H           -3.03664676973834       -3.51735183708043       -1.55413423107409
