42
 energy: -83.597933311620 gnorm: 0.000806846941 xtb: 6.5.1 (579679a)
C            7.08991066511478        0.29149788151285        0.47549863206161
O            5.80665859470866        0.91305983009487        0.49290292882567
C            4.75269885912911        0.09414075160341        0.22667762195205
O            4.92888446525351       -1.08706386984152       -0.01294173522747
C            3.44291898943910        0.76512656873686        0.25939708181152
N            2.39823132776155       -0.07817881087102       -0.00735299759932
C            1.18172491993141        0.42947850128778        0.00891571203017
C            0.01991853082128       -0.52836888971145       -0.23986560247850
C            0.51254686340032       -1.78887364225582       -0.95778121876001
C           -0.57830024705917       -0.89025124110886        1.13457611184325
N           -0.96256108591088        0.17003684979176       -1.09700931481837
C           -2.29456701906320       -0.37073052748460       -1.09904238494648
O           -2.57272873570120       -1.25528919440476       -2.17394706096635
C           -3.16933198287304       -2.47996802870506       -1.79738920129431
C           -3.27535486627041        0.23471291461175       -0.36479426186282
N           -3.07697915357710        1.17173291801480        0.59987825694766
N           -4.32373422153523        1.44322093532235        1.12481775325688
C           -5.18432341292706        0.71035373819982        0.51497272488462
C           -6.65329761048558        0.65493774257015        0.74517013132176
O           -4.62368348295449       -0.09573863377943       -0.45278118803259
N            0.85556212236200        1.69492427358864        0.25843964777884
C            1.82726179697569        2.60732582794394        0.52230531315184
O            1.56593825857420        3.80557843598297        0.74923052509307
C            3.20681660474580        2.09777591107940        0.52702328746132
O            4.16601409442272        3.02484046941145        0.80696701739555
H            7.29382586150145       -0.13431638776974       -0.51084037067613
H            7.13733736017010       -0.50330233702231        1.22500376839636
H            7.82068314024248        1.06382756940802        0.70535311621930
H            0.93212380519979       -1.52022307453077       -1.92824585048889
H            1.28485625901284       -2.28310240066812       -0.36854079889968
H           -0.31007686657228       -2.48554543717427       -1.11377820342830
H           -1.37603118026497       -1.62463941229458        1.01787165890734
H           -0.99057806702871        0.00399234018456        1.60643764391836
H            0.19457265114338       -1.31078268914286        1.77782508024021
H           -1.00949376382163        1.13830964143457       -0.75329302515347
H           -4.20907938876987       -2.33796681297067       -1.47239477898472
H           -2.61663974481927       -2.96948547037146       -0.98278648123729
H           -3.16242832195972       -3.13425753349540       -2.67372317641243
H           -6.92364164488700        1.37088954200879        1.51906775889224
H           -7.19920041529714        0.89592933317070       -0.16883133193844
H           -6.95992112192131       -0.34294255432326        1.06312031533548
H            5.05346816378878        2.63933597196965        0.81388589546564
