20
 energy: -38.344478002558 gnorm: 0.000850291854 xtb: 6.5.1 (579679a)
C           -2.83849777263136        1.13509641572453        0.33347752557247
O           -2.25940915876223       -0.12333378968414        0.08977960962090
C           -1.16117507566953       -0.10190200489882       -0.94675126404164
C           -1.03811484718783       -1.60701278104003       -1.33401362014497
O           -1.34182528967527        0.72350421207014       -1.91664251505576
C            0.11997301500781        0.26105762926809       -0.09636162886085
N            0.27821978617801        1.26753811538644        0.70488656675687
N            1.59728008681575        1.25325924564025        1.11979782044621
C            2.14720399532071        0.24367282167823        0.53543427596629
C            3.55556134857165       -0.20906985425315        0.64233579522474
O            1.27719960938010       -0.42746184927011       -0.24694767125072
H           -3.07042541637604        1.66425848716383       -0.60403060276112
H           -3.77138810388460        0.97734882714327        0.88370920114323
H           -2.17968002999284        1.77962397099498        0.94006068416238
H           -0.19090615044534       -1.73116201747924       -2.00547677138003
H           -0.90068539201161       -2.22711887743358       -0.45030223925195
H           -1.95033344073516       -1.90245868928609       -1.84906809535716
H            4.08485792728762        0.41334542811480        1.35964846208006
H            4.04898887536029       -0.14102366909373       -0.32709370167911
H            3.59315603345033       -1.24816062074540        0.96760716881034
