42
 energy: -82.940272692982 gnorm: 0.000641945306 xtb: 6.5.1 (579679a)
C           -2.91531071109582       -1.19487046829851       -3.10309979443510
O           -2.45005270730932       -0.63156777183738       -1.86906215043080
C           -3.33974582950468       -0.53858330376676       -0.89216129732303
O           -4.48860347313806       -0.88967230967058       -0.98301357090505
C           -2.73691318501626        0.06252035501856        0.35650484133275
C           -3.46348709666033        0.19038546233310        1.56402369068415
O           -4.69648580141123       -0.14863380405027        1.73719022259592
C           -2.81422129981408        0.74119245447926        2.78524735741100
O           -3.52832601981173        0.77579487703015        3.79547283658355
N           -1.55524742496124        1.14494999813053        2.66790604712626
C           -0.87413536788301        1.05449329140305        1.43911274760104
C           -0.52583486339277        2.49808767057260        0.99503566228105
C            0.46100925052151        0.23765211168249        1.67957145772796
C            0.09114395828170       -1.19263945777731        2.08417368519715
C            1.30511400760132        0.91222692140289        2.75706846931754
N            1.14971219277028        0.21156026033682        0.39584856977807
C            2.44021829679697       -0.15922672629804        0.22966522227604
O            3.24229682331654       -0.38051543773254        1.11679470185922
C            2.77578049380323       -0.23970489925743       -1.21562691526085
N            1.96590192138627       -0.01910910061525       -2.20761270710438
N            2.68552491686461       -0.20199372826980       -3.34941743091557
C            3.88907963037441       -0.52425714067723       -2.98113204117801
C            5.04994648715829       -0.82188834899129       -3.84848300683548
O            4.00802983154418       -0.56471818393802       -1.64636057879320
N           -1.49984380825526        0.46336854653571        0.31231161116557
H           -3.24646807387376       -2.22251149264712       -2.93946911761539
H           -2.07338028114064       -1.17106139897451       -3.79116432164747
H           -3.74568226595177       -0.60226895082957       -3.49298277763080
H           -4.88992194163293        0.05118554451907        2.69997437630954
H           -1.44373050720422        2.99448811050121        0.68908512754037
H            0.17060624419933        2.47150605929001        0.16137469182804
H           -0.09057349280482        3.03354810333757        1.83403610825951
H           -0.50460960819072       -1.66562260378040        1.30580702537852
H           -0.47541905320134       -1.18009142610520        3.01354737067358
H            1.00364984649127       -1.76942076095091        2.22919426804379
H            1.79349809049335        1.80396784215753        2.36966140129074
H            2.07207281111431        0.22528203500493        3.11050737359746
H            0.66728883852784        1.18609858038021        3.59611163336779
H            0.55521584638133        0.20036378827732       -0.42477428148276
H            4.74608306625391       -0.78265949541714       -4.89154759042729
H            5.84201054266855       -0.09402716742191       -3.67180217685839
H            5.44380771571437       -1.81130903508563       -3.61751674038968
