33
 energy: -57.867360270568 gnorm: 0.000997061908 xtb: 6.5.1 (579679a)
C            4.94805699264285        1.78653157180674       -0.24748875612308
O            3.91380394644703        0.79568195891080       -0.20591051137156
C            2.66473167452428        1.24439645948022       -0.17985717905192
O            2.37311741754415        2.41762362843568       -0.18865597850575
C            1.64576938771889        0.15100494575940       -0.14052081521360
C            1.88141561906942       -1.19414255476921       -0.10928138834427
O            3.08824301294910       -1.75699992620052       -0.11692539468533
C            0.76058612584555       -2.12736836733202       -0.05299433466006
O            0.94009660805178       -3.33552657304932       -0.00197820237455
N           -0.50814516120850       -1.55789555010686       -0.06467906199868
C           -1.60953707886696       -2.51650588562147        0.01082326283588
C           -0.65816423575789       -0.19097976218831       -0.08694333927505
C           -2.00567755373402        0.51916406927732       -0.14565084148739
C           -1.80860603987402        2.00519163708713        0.16650660600605
C           -2.68463022314408        0.35763877241401       -1.50658073197543
N           -2.94499228590733        0.00014182129645        0.92185476871269
N            0.35496564530232        0.60574890258123       -0.12676166664182
H            4.86762042861451        2.44671693091708        0.61930695209486
H            4.86153279933960        2.37720488555141       -1.16254515236231
H            5.89429999714623        1.24956526073671       -0.23013235821469
H            2.98625176583986       -2.72739305007078       -0.07808041059547
H           -2.47209770883234       -0.09289499464558        1.81536090564981
H           -2.40212216261799       -2.23958756613821       -0.67479637825419
H           -1.98411132532357       -2.56256356167326        1.03116325553230
H           -1.21775810418029       -3.49430670938414       -0.26969539003497
H           -2.77129737596060        2.51267971710260        0.16417420309265
H           -1.16917836906020        2.45281732452536       -0.59313201633252
H           -1.33509204116021        2.12849186318518        1.13892495727114
H           -3.59564808310890        0.95284828882751       -1.53431819027474
H           -2.00619487389123        0.71269023604457       -2.28199697862950
H           -2.94012638745132       -0.67832888063611       -1.71337898565810
H           -3.71407650883453        0.65240913354895        1.04114806652081
H           -3.35303790212768       -0.89405302567141        0.67372808435195
