42
 energy: -83.003411728751 gnorm: 0.000708881848 xtb: 6.5.1 (579679a)
C           -5.65763622838555       -2.90422530608631       -1.52340811934800
O           -4.84570659765466       -1.97089745385179       -0.81288997011784
C           -3.63968233451421       -1.71744633106529       -1.33517787588220
O           -3.25175638931225       -2.24695706347769       -2.35922408017511
C           -2.83560230013581       -0.74751083796375       -0.55991048086020
N           -1.61777308293615       -0.51279428592619       -1.10763414451193
C           -0.77757755169196        0.29973836332025       -0.55780872593992
C            0.56015360721235        0.60890645721281       -1.19918575451450
C            0.61928640365883        2.08438065616344       -1.61905769842257
C            0.75330957097308       -0.29987204597676       -2.41338372248702
N            1.66491780581810        0.31580193938914       -0.26508407333813
C            1.97258687903599        1.00440119138659        0.84570459294521
O            1.29145408457750        1.89545273082856        1.35086290465771
C            3.24169441331929        0.56706548779872        1.46517472631323
N            3.79079578727946        1.01268367353512        2.55274493631916
N            4.94709421716804        0.31620480883501        2.72347129333858
C            5.03591348369855       -0.51319808860905        1.72948796577442
C            6.10866390965507       -1.49335610331479        1.45648997575325
O            3.98735062842298       -0.40570419248993        0.89707884686960
N           -1.10511943917749        0.95477241901640        0.60451313645990
C           -2.26199391522617        0.77802398066415        1.22068609286123
O           -2.52126661302478        1.39343104815499        2.35698650231958
C           -1.56129715308139        2.25520336805417        2.97026763700428
C           -3.28443726293697       -0.12314540382551        0.64767789638123
O           -4.37479701594885       -0.27409592434937        1.20867840002291
H           -6.61016185206173       -2.95669422730878       -0.99946700000604
H           -5.18155198888461       -3.88780411766992       -1.53626094578543
H           -5.81144151991677       -2.56865074091534       -2.55193281268422
H            1.58919998793579        2.29786923147133       -2.06454297917585
H            0.47215902775306        2.73956629629009       -0.76311870809289
H           -0.16143520362117        2.28194009336202       -2.35205161235590
H            0.71948451172645       -1.34521185012029       -2.10964855627250
H           -0.04446068222938       -0.12068804755352       -3.13292529384713
H            1.71156577029272       -0.09283793524105       -2.88471459836223
H            2.33560343323115       -0.36809142727808       -0.58044323047123
H            6.51659406060506       -1.32748712767557        0.46015324512493
H            6.89653168735835       -1.39184903299130        2.19883898358655
H            5.70381154672814       -2.50497891776406        1.48946360058100
H           -0.37596480460012        1.55140111113504        1.00927052452584
H           -0.63870218339907        1.71081915405452        3.18526994441268
H           -2.01736089921729        2.59980913953625        3.89686043232485
H           -1.34244879852576        3.10602331121119        2.32132474507580
