47
 energy: -80.195185743169 gnorm: 0.000360046876 xtb: 6.5.1 (579679a)
C            4.68975066729470        0.98990342726420       -1.02376546397864
C            4.70247581055356       -0.47723433016368       -0.50699828347037
C            5.61539892788351       -0.59089581003517        0.69612966025681
C            5.09951511826934       -0.76523754549619        1.93532323995612
F            5.97171936755329       -0.76542967701216        2.99173716795648
C            3.75151278937490       -1.00422315269544        2.23254062729500
C            2.88806517111337       -1.13272777413988        1.12411833066521
C            3.29955246350569       -0.95050029051627       -0.16328207922048
C            2.35165659191773       -1.17631262307300       -1.32395039211475
N            1.02372717730519       -0.61548485645275       -1.07177113786826
C            0.74726487711481        0.69592280041091       -1.15369025074833
O            1.57222187256452        1.54613280285915       -1.53816781854775
C           -0.62607482705616        1.06399518833039       -0.77521028946850
N           -1.48445869534697        0.05704712952262       -0.42161716741345
C           -2.71013766308766        0.31856561858313       -0.09239959416627
C           -3.57852480697308       -0.88825932306940        0.24926483987199
C           -3.60230902709783       -1.09308856049132        1.77104416414548
C           -2.97683608548821       -2.13962685025193       -0.41306438778131
N           -4.94312365864746       -0.69532406192892       -0.23703506973769
N           -3.18400526761724        1.60631026675464       -0.03392906236298
C           -4.54105614902218        1.93564133920371        0.39892134136307
C           -2.40632127859364        2.71109522958176       -0.43764903011805
O           -2.89074759393323        3.84633913538768       -0.43146246408779
C           -1.05876429340766        2.37663137307152       -0.81704576130999
O           -0.24938891639319        3.38609471914909       -1.20650509559934
H            4.10756092608469        1.06727038088590       -1.94182879339499
H            4.24615561796105        1.64474656630339       -0.27315036449448
H            5.70921957858860        1.32125358721078       -1.22574366121947
H            5.10643165831871       -1.09195405216618       -1.33361713723671
H            6.67771498052998       -0.44485167890955        0.54329352510049
H            3.41576726020405       -1.16578285335973        3.24660527515252
H            1.85530586269682       -1.42221204307898        1.31017741982480
H            2.74543386598210       -0.71916081301303       -2.23944241220796
H            2.20574605819410       -2.24645851594086       -1.52089779002860
H            0.30166600640009       -1.22732214460704       -0.72294957061568
H           -2.58493027717413       -1.20674538502453        2.14412325321309
H           -4.06990396665045       -0.25067436845482        2.27790328825802
H           -4.16548711179989       -1.99441436930210        2.00886363029768
H           -2.89079394722981       -1.99077213334707       -1.48856797500018
H           -1.98724095961260       -2.34686972041082       -0.00813291326604
H           -3.62411200322105       -2.99450420992916       -0.22559521114038
H           -4.96098137574645       -0.81174249046441       -1.24217211947773
H           -5.53578974960301       -1.41151618622721        0.15709727804621
H           -5.23978967580932        1.81434470318577       -0.42876407640909
H           -4.55368268019385        2.97429569886371        0.73297220609201
H           -4.84557283931371        1.29180836051165        1.21738309240660
H            0.62617119960653        2.97192849248179       -1.44967196741788
