33
 energy: -57.853954484640 gnorm: 0.000722299150 xtb: 6.5.1 (579679a)
C           -2.77679154683625        3.26656983352115        0.73857532818751
O           -1.78294148843694        2.25871169847629        0.47312759381023
C           -2.14177697052983        1.04781446475579        0.25695642226234
O           -3.40382565179515        0.77540910689913        0.28915252584311
C           -1.10944740603114        0.07162886789416       -0.00643538102396
N            0.16687660510272        0.57589170963267        0.00904679463515
C            1.15012980486220       -0.23068231021455       -0.22334823028196
C            2.58202092646152        0.25190499561112       -0.18926900423057
C            2.68062419207942        1.63198610163831       -0.85308326062466
C            3.01553369164141        0.32416590945921        1.28205254966722
N            3.39880655680000       -0.74050808340053       -0.87577739278037
N            0.95751456277116       -1.55343618125595       -0.46212023543243
C           -0.25576963631566       -2.18875366813904       -0.50922216197998
O           -0.34376595599938       -3.38064278459730       -0.73553121037400
C           -1.38011791593732       -1.26659960057443       -0.25594795220013
O           -2.64571192581139       -1.67237197504412       -0.25945785980800
C           -3.03137673065838       -3.03730993910017       -0.52012342280400
H           -3.47773647181399        3.31316157030002       -0.09541276532551
H           -3.30891021452573        3.01492380783492        1.65669710031832
H           -2.23182938222438        4.20166979924375        0.84582561763672
H            3.70921382666145        1.98526394223337       -0.81366299634390
H            2.36663584355101        1.56935650661125       -1.89379117667239
H            2.03583690455933        2.33916250969876       -0.33245074539681
H            4.03136000699666        0.71115504908441        1.34507241784244
H            2.98575796679955       -0.66908799875715        1.72770326637359
H            2.34812192898542        0.98377342450914        1.83511431508681
H            4.36539544077527       -0.64101308704148       -0.59849834127521
H            3.34671184650575       -0.59366537591606       -1.87449800664900
H            1.79746447408247       -2.10160801562897       -0.64508923901735
H           -3.62031243695520       -0.16703250330227        0.11272371995142
H           -2.61305968527562       -3.69774796184975        0.24003567149125
H           -2.69607317732007       -3.34086735993772       -1.51205088127909
H           -4.11855998216839       -3.04122145264437       -0.47001005960708
