43
 energy: -76.179534889685 gnorm: 0.000469741715 xtb: 6.5.1 (579679a)
C           -4.26326346995315       -0.66691602055884       -1.41810091887864
N           -2.84870217195911       -0.29029159492928       -1.39576242139874
C           -2.18156817391801        0.06041192063304       -0.25117014497963
C           -2.80753224179697        0.06975831318035        1.15031077850654
C           -3.69910079467344        1.30705363976725        1.33226940285052
C           -3.55194418353836       -1.22738729966922        1.49898349126594
N           -1.72324472100287        0.19552798332648        2.12118844123452
N           -0.93580531955408        0.42556439457979       -0.28545249227485
C           -0.24609223970391        0.45895722197229       -1.46168065984305
C            1.16745023669531        0.90395689565348       -1.40536874720693
O            1.88218224081360        0.94369676192125       -2.41193469955509
N            1.58401394421545        1.27073069075950       -0.18632847106177
C            2.95585920901972        1.68858886190156        0.07066437960896
C            3.80766425228138        0.50209395958476        0.46940041620123
C            4.19141237176798       -0.43174354563729       -0.49206400215046
C            4.95627937314478       -1.53354241272080       -0.13845876683042
C            5.32533205250088       -1.67800987078829        1.18738571681816
F            6.06811575272516       -2.74148511603345        1.53711895504164
C            4.96265383471293       -0.77141048305218        2.16626960413545
C            4.19514075663305        0.32479882613192        1.79472081954211
C           -0.83155928024700        0.07966907861617       -2.63935907966658
O           -0.19325122768281        0.07613148122600       -3.81734489558438
C           -2.22394790743681       -0.34625236581546       -2.64731218165591
O           -2.83715175653893       -0.71667545387548       -3.64023429797205
H           -4.65107618214627       -0.47045658411304       -2.41808852679151
H           -4.36814715499442       -1.72925569467272       -1.19903489647411
H           -4.82350678242971       -0.07838973203843       -0.70069130856051
H           -4.59285920745927        1.26164042731616        0.71402108635855
H           -4.00080858670094        1.37093892300432        2.37726084746560
H           -3.13946124574555        2.20519672422679        1.07329729260472
H           -3.02558272736887       -2.09140339011119        1.09516474647198
H           -4.57444872150098       -1.22746821829693        1.12945033177867
H           -3.58631808175473       -1.31907654266588        2.58465105762832
H           -1.06450375916401       -0.56123484756614        1.98146305400047
H           -1.22045434617544        1.05752663715433        1.94486908038488
H            0.95599723355563        1.14598772283889        0.59338399150372
H            2.93777439633981        2.43642729711717        0.86636728621407
H            3.34191595987230        2.14431129266840       -0.84698472532008
H            3.89029320419533       -0.29489732420318       -1.52445320854748
H            5.26305305993923       -2.26673880715445       -0.87339483286846
H            5.27150359677887       -0.91973497500168        3.19280742591145
H            3.89846750535120        1.04672375439271        2.54640453343491
H            0.73522030290788        0.38667747093538       -3.67423246134667
