46
 energy: -87.009199978734 gnorm: 0.000937263865 xtb: 6.5.1 (579679a)
C           -4.15716825241276       -3.59729099800799        0.41987176856634
O           -3.59962233605325       -2.33782990908406        0.78090175641997
C           -3.04373957986159       -1.62136057615533       -0.25830394664640
O           -3.05573962035978       -2.08372352717904       -1.39689924654721
C           -2.52554260573819       -0.33989854829606        0.12568714246916
C           -2.31634108043566        0.15306758527156        1.40800402736962
O           -2.67439618227957       -0.50802771346421        2.54956350097130
C           -1.52266831050377        1.34181980178470        1.60618310302727
O           -1.43862103832291        2.01193257827898        2.66853021983201
N           -0.71831059442431        1.64708506233716        0.52758855186493
C            0.25522030315757        2.70922652419952        0.77980026913509
C           -0.90774297382754        1.15216887242559       -0.76007051280363
C            0.26922116860254        0.49569900049766       -1.48422473952757
C           -0.15996771106513       -0.80019432309446       -2.19132657411917
C            0.83898640947560        1.47149098978042       -2.53291505447627
N            1.31786994480641        0.16074646140449       -0.50101860054657
C            2.53667202225805       -0.31302505721966       -0.78687392191292
O            2.99444115007621       -0.52741075842365       -1.90046008947784
C            3.30795596267271       -0.56316565117132        0.46667737336637
N            2.87481643132078       -0.38173889469207        1.67787531412580
N            3.88553172586863       -0.75179696296859        2.51779708211259
C            4.86821217744461       -1.13570793089562        1.76424656626011
C            6.19771399827458       -1.62412701987234        2.19289972600059
O            4.56708054126608       -1.04177541882710        0.45938338526387
N           -2.19559647424725        0.54363670382603       -0.97246879622876
C           -3.24340432846862        1.56089242792764       -1.19040760635365
H           -3.38583172664723       -4.25817388834367        0.01191361691576
H           -4.57438245542020       -4.03433290641689        1.32521882395173
H           -4.94590046465751       -3.46889278849457       -0.32744484076580
H           -3.18780182873462       -1.30406576723527        2.33816842076431
H            0.85143973580656        2.46312092897334        1.66089576826462
H           -0.27404578788119        3.64697867746321        0.96826996305220
H            0.90498824187506        2.82893740871247       -0.08229653719549
H            0.65943838437881       -1.18498325259060       -2.79736010027424
H           -0.44246250553189       -1.55448097487900       -1.45828668855037
H           -1.01758733200013       -0.60281851573011       -2.83294122176283
H            0.02156545856164        1.80971680836509       -3.16800113731336
H            1.59529250059577        0.99322918696884       -3.15387788939302
H            1.28130619320909        2.33967024615155       -2.04817496158544
H            1.07090798559604        0.24372176025291        0.47783108688697
H            6.42314837912687       -2.57225475018922        1.70560657799988
H            6.20938935959822       -1.75382178033456        3.27244882931773
H            6.96768088434300       -0.90641142290712        1.90803090806961
H           -3.39133196375019        2.19644952762412       -0.30777606147919
H           -2.93959204412969        2.18239473845813       -2.03304803136312
H           -4.18108176156910        1.05740404576726       -1.42921922368319
