46
 energy: -87.063708096650 gnorm: 0.000901257055 xtb: 6.5.1 (579679a)
C           -5.93647763787613        2.62092338679279        1.81900329579349
O           -5.00784572477109        2.17053503672776        0.82545368302606
C           -4.05870160192953        1.31691417263764        1.25046735256675
O           -3.97918827160322        0.95695825825067        2.40266727045434
C           -3.14825854703771        0.86573073261869        0.16865374973485
N           -2.20402682262353       -0.02472585795823        0.59412420010039
C           -1.33749805991726       -0.54084519170556       -0.21843737874266
C           -0.37128937460269       -1.55921486337090        0.38640658053565
C           -0.76048856967930       -2.95688638239384       -0.12455972461015
C           -0.50639547968094       -1.52464558900146        1.91922161860083
N            0.98700437151669       -1.19419580601372       -0.00834926339729
C            2.09491668997233       -1.92298596626350        0.48971540548283
O            1.98113349705754       -3.08571179697737        0.92317272075517
C            3.30976199696647       -1.21584052080553        0.38127503489654
N            4.51951036550257       -1.63680248018818        0.73110372608804
N            5.41179579016833       -0.72258441183429        0.52156739595818
C            4.72831846443836        0.45532636490908       -0.03494869909902
C            4.91809377989960        1.65667366385645        0.90366855687525
C            5.28004426904642        0.75897370268283       -1.43683181998425
O            3.35283416446525        0.10176088784365       -0.11227307167097
N           -1.33453947413625       -0.21968835591667       -1.55146524514725
C           -0.42491109662018       -0.79497717653810       -2.54656734226709
C           -2.25524964431194        0.66757897984428       -2.10030400129660
O           -2.24535862234686        0.91104852504713       -3.30247976194454
C           -3.19858915225576        1.24443087930718       -1.15015477993479
O           -4.06923979337452        2.11287955580691       -1.69214919964335
H           -6.59763499694007        3.33192645355880        1.33005765402748
H           -5.40117088564359        3.10168534268786        2.64125661838503
H           -6.50926757940212        1.77396113721097        2.20415125238077
H           -0.56122393619509       -3.05858189851852       -1.18893288427261
H           -0.19655204488344       -3.72012744292773        0.40854213275200
H           -1.82347449780703       -3.11893083615585        0.04973113405582
H           -0.26419433121334       -0.53173084946706        2.29541717340006
H            0.17249469174649       -2.25203528300266        2.36155216461754
H           -1.52656747294997       -1.76957496360795        2.20959957220332
H            1.14578400528634       -0.19413553840465        0.01797286678277
H            4.39441806536468        2.52646436476163        0.51148345798750
H            5.97793674308756        1.88507622269688        0.99767002906138
H            4.51710711083973        1.41331247671619        1.88627209168013
H            4.76924372953420        1.61927572689245       -1.86549432010697
H            6.34623004484591        0.96742632696082       -1.37314753076545
H            5.12412066419161       -0.10519343442357       -2.08059477213425
H           -0.96535186918498       -1.53596459810258       -3.13668376356436
H           -0.09110789318711        0.00523470511948       -3.20767023279705
H            0.43386748703411       -1.24988739792697       -2.06249347543823
H           -4.69001155079700        2.47117173855694       -1.03666647138308
