33
 energy: -58.507564924483 gnorm: 0.000333420647 xtb: 6.5.1 (579679a)
C            4.79435131961267        0.79177896610301        0.57279912905945
O            3.67150715747155        0.57672208789934       -0.25818052916410
C            2.49692219823058        0.18473799559027        0.43684598915189
O            2.55200093942858        0.09589810693537        1.69037633134423
C            1.44455542858286       -0.08846921001415       -0.41370325968625
C            1.42975820022674        0.12617116755978       -1.87808552869757
O            2.49963444402215       -0.39861663150792       -2.64457829434764
C            0.33736494051383        0.65271963774503       -2.47582711230532
O           -0.01784573987141        0.89276429247148       -3.66156884138254
N           -0.71889413037131        0.98451359295615       -1.43516655441983
C           -0.92245337488915        0.14502909710304       -0.41067352244812
C           -2.36657866128124        0.02140868007045        0.08725704262203
C           -2.53589268915984        0.94123736238542        1.30518874402484
C           -2.81718301455375       -1.41061784686287        0.41635618755667
N           -3.23677993903400        0.53684878544971       -0.97632722267396
N            0.14446815506062       -0.38892838565556        0.14648642275576
C            0.09116250292820       -1.37079465885079        1.22449231346759
H            5.62293582456238        1.09860726888877       -0.06779815627137
H            5.07515993128762       -0.12308191540746        1.11037521548792
H            4.60055378034210        1.58060425862841        1.31149778454376
H            3.32877757600038       -0.17100291685135       -2.19684790401196
H           -1.57552991469994        1.32295597022946       -1.86401215102919
H           -3.55471788329755        0.86725234347251        1.68153101972787
H           -1.85109414769974        0.66193889637622        2.10414371462513
H           -2.34114666709070        1.97463125823212        1.01875478922181
H           -2.48953189773452       -1.72675006025725        1.40361091410080
H           -2.45044465685288       -2.11439712797683       -0.32948545278075
H           -3.90604947937148       -1.43839389776324        0.40826417990530
H           -4.10315830127823        0.85151681945166       -0.56715660079724
H           -3.46840096585242       -0.21355738435798       -1.61433870891827
H           -0.29816259998568       -2.31813372428843        0.84998262065411
H            1.09694201358282       -1.53270878903376        1.60861112696994
H           -0.53222834882842       -1.01188403871888        2.04073731371806
