43
 energy: -83.165261466717 gnorm: 0.000779211264 xtb: 6.5.1 (579679a)
C           -4.96653097582492        2.53543377067082        1.52878118986283
O           -4.45174252702841        1.27066757694309        1.05874236961898
C           -3.13908505977589        1.19799535653968        0.89952940558922
O           -2.38090691605702        2.09736417379209        1.15437505358595
C           -2.70387048174011       -0.16004647449222        0.42103674633024
C           -3.41037292445473       -1.29847662494875        0.69930425063619
O           -4.59598799921602       -1.35842939846147        1.27432793963892
C           -2.83985207537236       -2.62003242453007        0.39024000140213
O           -3.37702109365144       -3.68698778474586        0.53000177706967
N           -1.52579627622371       -2.53544664740127       -0.07479972935837
C           -0.85062572232291       -1.42049815489373       -0.38249179216493
C            0.55705850721175       -1.60792953888795       -0.93404398500166
C            1.19732187535143       -2.90756966294838       -0.41893635174103
C            0.47210323999387       -1.64896717266509       -2.46983397917741
N            1.37108026589460       -0.49858686140436       -0.44438008826049
C            2.62771838528148       -0.23780478594889       -0.91956908877888
O            3.11633218490904       -0.71582710441523       -1.91944245886054
C            3.30013468953067        0.75096059362199       -0.04944920497239
N            2.82423569611368        1.24615593033003        1.05510752138445
N            3.76517008093770        2.09904459926341        1.53877155487632
C            4.75918660683717        2.07112551876038        0.69929576704500
C            6.02833715175484        2.82661624471216        0.77577276047632
O            4.52265472379787        1.23704789580546       -0.32247859888743
N           -1.45165136023897       -0.25454873408062       -0.21054640338376
C           -0.89137448567183        0.99071363084038       -0.76438690357409
H           -6.05003834933901        2.44934262275716        1.50556661149110
H           -4.62510265385990        3.33218571748089        0.86578198884469
H           -4.61038478692434        2.71869692134903        2.54407514325629
H           -4.99180755647560       -0.48574194126237        1.45780493441237
H           -1.08950630225666       -3.43657634146825       -0.22509897935077
H            1.12758446534024       -2.96666153385989        0.66510468573215
H            2.24843121326469       -2.89967790242588       -0.70487716431857
H            0.73294715970029       -3.78311794228396       -0.86854133885827
H           -0.31713401479513       -2.33981196027439       -2.76070397637635
H            1.41778144956144       -2.00090001896938       -2.87704035831400
H            0.25590933300746       -0.66707161778019       -2.88370754551108
H            1.19373545963011       -0.20722941716532        0.50663203003182
H            6.03722402045924        3.43710735942982        1.67579302021176
H            6.87182609159596        2.13567527672543        0.79168991306900
H            6.13241640310836        3.46567244826327       -0.10148532390833
H           -0.22342586341950        0.75206216881767       -1.58242097820828
H           -0.35353608884642        1.52836650560578        0.01369331113712
H           -1.71343648978538        1.59570473360595       -1.13719172669769
