43
 energy: -83.181785623425 gnorm: 0.000375697906 xtb: 6.5.1 (579679a)
C            6.94730646937169        1.59689864852526       -0.65457310540208
O            5.71587386153547        1.42953253201976        0.05638081708804
C            4.79690204689647        0.66210859786385       -0.52148700424231
O            4.96126549303914        0.11475882282168       -1.58769675345912
C            3.53940819169350        0.53867218093764        0.27685744099982
N            2.61115340035897       -0.30020408270882       -0.29518493214484
C            1.47878320655603       -0.50086105521817        0.27873130878494
C            0.49205262569423       -1.47610844169982       -0.32394428942637
C            0.84727816757998       -1.75577419797084       -1.78630634714794
C            0.51202853027095       -2.76006815764203        0.51878083854090
N           -0.84551499797360       -0.85689992931638       -0.25230503647249
C           -1.96130440873056       -1.49682052261663       -0.63392298280116
O           -2.05300183924374       -2.63073190782311       -1.04715339330052
C           -3.17153354004172       -0.61440062304446       -0.48002621569617
N           -3.21255004166697        0.61767989196178       -0.06871411554280
N           -4.51595465412106        0.95124327857734       -0.10219538432728
C           -4.93598863509997        2.27500770387151        0.31220235271538
C           -5.22998360954978       -0.07239741542309       -0.52657893873140
C           -6.68388279291532       -0.16611397533591       -0.73233945793041
O           -4.40314761399057       -1.06671726636417       -0.77184548222520
N            1.14823244889217        0.08371804661886        1.47201707126131
C            1.98807210156585        0.94886628377068        2.13367072300099
O            1.68881367238761        1.48055615013528        3.19078893519791
C            3.26849474785453        1.16864132653998        1.46075482377365
O            4.10502665144903        2.00316217152265        2.08299327869470
H            6.75772176708440        2.05717718772929       -1.62718201117033
H            7.57308118688257        2.24455492990162       -0.04388576171341
H            7.43022398571048        0.62773425748266       -0.80075502930798
H            1.85850470790963       -2.15723150302659       -1.83976583585852
H            0.15051645673762       -2.47708271997409       -2.20791244720297
H            0.80173932994846       -0.83204771621401       -2.36067122192214
H           -0.12643320252472       -3.51806017594015        0.06988237819694
H            0.15958763306943       -2.54723164775281        1.52589790255550
H            1.53217853285134       -3.13806781916489        0.57058445833562
H           -0.91549324004809        0.10996073248984        0.01516820635014
H           -5.53469450298103        2.72005134331054       -0.48011380771840
H           -5.52869385216579        2.18890409495609        1.22206117238755
H           -4.04097020521764        2.86341411855975        0.49587691122654
H           -6.98382936187272       -1.21288133922791       -0.74698074674997
H           -7.21121985772253        0.37138252725354        0.05408104556312
H           -6.94600201286698        0.28897066669432       -1.69054957598425
H            0.25700364189782       -0.09783406138735        1.90327628922537
H            3.67894851149347        2.33454206431073        2.89463592257891
