21
 energy: -31.458630795820 gnorm: 0.000887886967 xtb: 6.5.1 (579679a)
C            2.28999642014490        1.31147358737853        0.71244845843553
C            1.38622033285234        0.73012450559241       -0.42474736523514
C           -0.08094346873160        0.76630246796107       -0.04463030455040
C           -0.80050420522428       -0.35575855272189        0.27861440705369
C           -2.23234794604509       -0.18690908782075        0.75668577476135
N           -3.03304407100200        0.59553852238855       -0.20321039136213
C           -0.27957213144585       -1.65905939461298        0.15069309636833
C            1.01417833402730       -1.79225529313178       -0.41430283594512
C            1.73888810797748       -0.69534726214069       -0.72244382293715
F            2.97405988195739       -0.85403816318211       -1.35279797941346
H            3.34180446919445        1.25923125325684        0.42646451708244
H            2.02785756895872        2.35291219821444        0.90358352411591
H            2.14577628875777        0.74124181034758        1.63076097379431
H            1.57837059522861        1.36416680635249       -1.31456104172653
H           -0.54037793846608        1.75068906702984        0.01128708549599
H           -2.70025718565089       -1.16992997016950        0.93090672823645
H           -2.24379329665816        0.35691581857837        1.71200723587004
H           -3.19178220311677        0.03256769905971       -1.02944560990030
H           -3.93832070233727        0.76625548707642        0.20870166605888
H           -0.86690858578358       -2.53526434142152        0.39710709174951
H            1.41070073536254       -2.77885815803580       -0.64190220795151
