42
 energy: -83.614838710797 gnorm: 0.000917313538 xtb: 6.5.1 (579679a)
C           -3.27304617624731        2.58483867523750        2.79069623625331
O           -3.36663261506935        1.61290309731201        1.77418037337428
C           -2.13173549881575        1.14048417587487        1.28787873994746
O           -1.09151842878685        1.61748964495525        1.79710025633744
C           -2.20530908128414        0.14976792187566        0.29922565185902
N           -0.96769449929972       -0.20636559664721       -0.19543993483355
C           -0.81128259782481       -1.12589612250011       -1.07432386255028
C            0.56922668466791       -1.43295212318214       -1.62917531650318
C            0.60139875268166       -1.22197111830624       -3.15123298119231
C            1.00786703345327       -2.86393667451101       -1.27726246666598
N            1.46448283212577       -0.47793329253253       -0.97679935787964
C            2.78172620876515       -0.38839615068245       -1.17584189492663
O            3.44168981338462       -1.06795560903611       -1.95741778675567
C            3.38807547796724        0.66975831638633       -0.32307442299785
N            2.75959419534790        1.44434896471996        0.51054184146941
N            3.69703765328380        2.25939148670762        1.07613278802601
C            4.83550426285189        1.93153605449388        0.55316846844593
C            6.16166162342643        2.52353893731989        0.83783885569370
O            4.71313039152722        0.93518046889852       -0.33907749201850
N           -1.88182264518392       -1.90893545247280       -1.54407008776964
C           -3.13445585695184       -1.77495135951656       -1.00142845055777
O           -3.93599588405842       -2.70909268521693       -1.12953650399608
C           -3.48547128673555       -0.35047950424427       -0.44388876832419
C           -4.65869642597781       -0.57531153110598        0.57472195897591
O           -3.83570378572036        0.40590476550337       -1.49616702396664
H           -4.28963171588624        2.86742087758990        3.07136635038056
H           -2.75456111103590        2.19385968519824        3.67633828167999
H           -2.73576197294878        3.47936567166554        2.44725280326049
H           -0.12796045549986       -1.87739086717180       -3.62418783802371
H            1.58789468763984       -1.45393928457194       -3.54865250922228
H            0.35690334878536       -0.18703827744827       -3.39093686699709
H            2.01376179715171       -3.05455933850114       -1.64733441595286
H            0.33061338814127       -3.58237291012079       -1.73492136982840
H            0.99480385653776       -3.00328144626317       -0.19684655977367
H            1.00861175882174        0.12095259082043       -0.27902731943726
H            6.06566652877414        3.27694654996261        1.61564603792626
H            6.56897259943041        2.98202430853514       -0.06248416568017
H            6.85510432037358        1.74947273212677        1.16437233313412
H           -1.67042299051268       -2.79702860168727       -1.96638239288574
H           -4.29919632352484       -1.00473244800970        1.51079705131243
H           -5.15579542444604        0.37185295431824        0.77539947450239
H           -5.39103143932275       -1.25251748577466        0.13198128615235
