42
 energy: -83.003084244131 gnorm: 0.000375614983 xtb: 6.5.1 (579679a)
C            6.04025915128375        0.46892747140154        0.50624321093366
O            4.97504485758163       -0.26498461552241       -0.11836784933690
C            3.74459779418547        0.09260190779259        0.18156182637248
O            3.44167824921720        0.99305266761687        0.91800065928576
C            2.69159882589470       -0.77011732270283       -0.57292666804579
C            3.24721057452676       -2.14040853380993       -0.95903556780200
N            1.58335906344342       -0.92772726895061        0.33998539997266
C            0.65433934927918       -0.06457891534361        0.38425430271877
C           -0.42729983796263       -0.19747764410325        1.44772465547891
C           -0.21422170897467       -1.49583493002931        2.22777893143163
C           -0.36912969283927        1.00026101280430        2.40418638860363
N           -1.74492796781682       -0.29868460080279        0.80744901627478
C           -2.44785395055928        0.71275891550808        0.26208321890386
O           -2.05823581037140        1.86227193863649        0.12276165152834
C           -3.78086751568856        0.24801675721239       -0.19104996968960
N           -4.23323125500132       -0.96846942063078       -0.12216885223981
N           -5.48451457599269       -0.95240093725810       -0.65757884847364
C           -5.71725556272586        0.27419296432933       -1.01869334009657
C           -6.94099584549744        0.81248053296623       -1.65163573399548
O           -4.67778189535944        1.07792478810469       -0.75223486558771
N            0.56497929661967        1.02031462424339       -0.47189964629457
C            1.31778773956666        1.16858742857207       -1.59369420798959
O            1.16319047015781        2.07911599307167       -2.37725748913117
C            2.36655764002587        0.06775113416945       -1.79743658544100
O            2.91953839623253       -0.08555436606039       -2.85509891590709
H            5.94529515332622        1.53124080327178        0.27355215964175
H            6.96634729220589        0.06777146915311        0.10189739255990
H            6.00009317839960        0.32535167994318        1.58720858023441
H            2.45789400000517       -2.72693225537776       -1.42559959771257
H            3.59912981812729       -2.65893578250811       -0.07038662025327
H            4.06950070113737       -2.02356687926493       -1.66201929539394
H            0.75739834010138       -1.47257746415003        2.71822132293639
H           -0.24205886987222       -2.35176351521301        1.55546116604574
H           -0.99118532863779       -1.60524727355297        2.98161226047197
H           -1.16583904164846        0.91440770923481        3.14092505274589
H           -0.48038632532050        1.94267338009082        1.87297454178438
H            0.59199582382427        0.99711804185390        2.91664734489766
H           -2.19942158967956       -1.19871285136607        0.85920678863142
H           -7.67735923748362        0.01956236491313       -1.75637319885566
H           -6.70334547758352        1.22229719187809       -2.63345976339865
H           -7.35232315363888        1.61631651248315       -1.04158190803455
H           -0.18956307249343        1.68897328739078       -0.32671994776265
