42
 energy: -82.981738368909 gnorm: 0.000824991239 xtb: 6.5.1 (579679a)
C            5.99047207383292        0.83912103322784        2.02588514634208
O            4.79944335597225        0.61756643050146        1.28059764132073
C            4.73763321693303        1.23780658365435        0.06614973118465
O            5.66183883786584        1.93090077822722       -0.32325119631782
C            3.49274174814115        0.95928168130488       -0.63812171235724
N            2.59841041389043        0.15707840877420        0.03942005225325
C            1.47466059777412       -0.15668738758287       -0.48789845558469
C            0.51685183266667       -1.07368061656821        0.23977346142394
C            0.89072827698926       -1.15653033334476        1.72137753001285
C            0.53665663341938       -2.45801386355965       -0.42275504133987
N           -0.83760313767718       -0.48888663988915        0.11507834578903
C           -1.93572061008371       -1.08534490134091        0.57702601092120
O           -2.02506374162150       -2.16029902287763        1.14333800694048
C           -3.17531385926065       -0.27839012676801        0.33133163116020
O           -3.19283278588991        0.90935587263761       -0.25936580870535
C           -4.48050256558461        1.29997311159335       -0.27195531833014
C           -4.86870371258999        2.59210400218022       -0.86209091606340
N           -5.24594001874413        0.40728190266866        0.28418050708266
N           -4.41349791422841       -0.58071659282922        0.66322584533607
C           -4.94551457945248       -1.76361476856420        1.30578483017902
N            1.11230640843411        0.26625498926151       -1.75177492669518
C            1.89785584835210        1.08016012450178       -2.53606432470611
O            1.49861884026096        1.42482433169718       -3.64210857035967
C            3.22998550687467        1.47897372560586       -1.93635711441874
O            3.98596862436552        2.20724309010757       -2.59743422267367
H            5.89436622142629        0.27400249120065        2.95189966258155
H            6.11263544049915        1.90314050309114        2.25227106375805
H            6.86646713051634        0.49178324541050        1.46840545078417
H            0.79961678293783       -0.17402784648198        2.18190298455396
H            0.23902999756191       -1.85715865142489        2.23833261684482
H            1.92388140717609       -1.49150717299224        1.80783066982135
H           -0.09324277763388       -3.15626649960370        0.12387579392417
H            1.55910286671676       -2.83429545240242       -0.42783396569587
H            0.17882462985921       -2.38505476704852       -1.44799262830244
H           -0.92678849170235        0.43012175971867       -0.28870259104830
H           -5.94579921683895        2.72098243852797       -0.79170290746801
H           -4.55643290572419        2.62721525364023       -1.90649415568551
H           -4.36327645287503        3.40251491815507       -0.33508822962799
H           -4.23396458291557       -2.10900524503805        2.05306120965842
H           -5.08713174906455       -2.53675717839886        0.55087756069929
H           -5.89803505223599       -1.50072299766897        1.75833724571684
H            0.22726746164575       -0.01072761130071       -2.13720191291184
