38
 energy: -79.626795069786 gnorm: 0.000157252981 xtb: 6.5.1 (579679a)
C           -5.87761062780907        0.45071759605635       -1.10829091517892
O           -4.54186125655085        0.31268373098400       -0.64720132498787
C           -4.33708677027008        0.61989632742973        0.67228008418436
O           -5.26776854935228        1.00503813220050        1.36364836142892
C           -2.95878850092384        0.42003834050258        1.08363028954783
N           -2.10051602468185       -0.01520752691520        0.08851794494429
C           -0.87112508289528       -0.24777928912502        0.35425851618937
C            0.07170692706430       -0.77211072211462       -0.70978748519535
C            0.23389563266256       -2.28604145972445       -0.53881345972445
C           -0.46363176612644       -0.43847682910199       -2.10469850250433
N            1.39697351021759       -0.16884230191162       -0.51674293777718
C            1.59634856153518        1.16366499750519       -0.50759987356207
O            0.72288703588549        2.00747760735360       -0.62559961634439
C            3.02234348453431        1.53023588548046       -0.29941744615812
N            3.52653567218718        2.72132949183201       -0.20608856036004
N            4.86433978048982        2.56670215415781        0.01092901801712
C            5.09267907484572        1.29132602274862        0.03769089027330
C            6.38593399252698        0.60453932143813        0.24395858337529
O            3.96970015008326        0.57862795311125       -0.15106452114600
N           -0.35129512695109       -0.10046430205616        1.62379257330527
C           -1.07870354338423        0.34031718269619        2.69834715586309
O           -0.53884267203816        0.45393730391428        3.79678464291063
C           -2.53465489823993        0.64687799347576        2.42065890744324
O           -3.24587876950958        1.05697666263966        3.35568955147909
H           -6.22139774954260        1.48554024843387       -1.00684022230930
H           -6.55229117238199       -0.20166798326650       -0.54409966405537
H           -5.88405119323880        0.16298076732768       -2.15875010688213
H           -0.73316289852577       -2.77351244434989       -0.65498803627898
H            0.62634949635136       -2.51266782779720        0.45105673457516
H            0.91874423687030       -2.67850960304970       -1.28781569117728
H            0.21492817527639       -0.81875580664929       -2.86511072119904
H           -0.56845570320022        0.63964418560348       -2.22189639734292
H           -1.44183811522420       -0.90099260183768       -2.23039463481295
H            2.19258615513453       -0.78027134975162       -0.48381157035597
H            6.61481373206327       -0.02201809094670       -0.61750055828285
H            7.17444142323555        1.34037188624427        0.38027608725140
H            6.32962593409274       -0.03927104459754        1.12138381175786
H            0.61412844578973       -0.33428560794089        1.78360609308796
