42
 energy: -82.990972456658 gnorm: 0.000700286515 xtb: 6.5.1 (579679a)
C           -2.19387686032505        3.13920646456970        0.63207863757482
O           -1.88218761123163        1.74444625754750        0.59227864423607
C           -2.84567909970894        0.87177608556612        0.35437895962620
O           -4.03692940415748        1.41160295834683        0.22477370282229
C           -5.14796325786952        0.82253243037992       -0.45863999061990
C           -2.47251775384569       -0.47782030349336        0.25289357053109
N           -1.09289107240555       -0.65617628984336        0.14632108124747
C           -0.58841194824970       -1.82450574081097        0.03305949038578
C            0.91158821508078       -2.00259547128483       -0.09772879036914
C            1.24942900459920       -2.62362219712117       -1.46127616062673
C            1.44224416030225       -2.86711478522325        1.05492417133417
N            1.49014653339854       -0.66498481574252       -0.01319220946830
C            2.80618129867510       -0.40520016170750       -0.09346537959166
O            3.68975076447373       -1.23456408943884       -0.23522260372684
C            3.06855431545668        1.05491892972208        0.01762022579782
N            2.18008079258695        1.98830235782446        0.18119711123562
N            2.85783930530287        3.17028211216528        0.23569409463518
C            4.11669725394000        2.88115516314741        0.10185796108542
C            5.26273844353938        3.81704737956959        0.08864586338009
O            4.31378541512684        1.56224833803587       -0.03982875870993
N           -1.36064474337860       -2.96448106019065        0.01037484354552
C           -2.72340930363239       -2.96523189387446        0.15483465977151
O           -3.35823848190440       -4.00126062653348        0.09670856014245
C           -3.35528498407752       -1.60255176109369        0.38665535025557
O           -4.53965101406234       -1.54561068359683        0.71285012854338
H           -1.25093955014945        3.65480838232093        0.80496017925680
H           -2.63128300912551        3.45647836775249       -0.31654962701224
H           -2.89309327799532        3.34797032239798        1.44449844798612
H           -5.79987988488234        0.31800967854817        0.25630803615686
H           -4.80712529083686        0.12011557179846       -1.21965611388814
H           -5.68222070555258        1.65063713958188       -0.92568371099654
H            0.89493374119616       -1.97608360552890       -2.26171952551441
H            0.77393367448589       -3.59767819179253       -1.55395866177976
H            2.32688430172563       -2.74888213350062       -1.55324396859839
H            0.98093912308041       -3.85179185048173        1.02386465302790
H            2.52069265403911       -2.98319368153900        0.96296738418658
H            1.21258724508519       -2.39518579838046        2.00926735803299
H            0.83303966156352        0.10217320185236        0.09179792387938
H            5.74996640565220        3.79494034034322       -0.88673334831895
H            4.91366176066257        4.82560948038727        0.29621432809470
H            5.99629031005075        3.51986640327271        0.83847136515428
H           -0.92973512662455       -3.86559422395036       -0.12820888271176
