43
 energy: -83.170140836767 gnorm: 0.000396953200 xtb: 6.5.1 (579679a)
C            4.07328460053567        2.86589356751403        1.46621001591399
O            3.21470033442113        1.79071340996612        1.03384728354219
C            3.34210418050535        1.40127780274048       -0.21448372490736
O            4.13855154080822        1.89122972116750       -0.98801483418645
C            2.51409552383874        0.22076868840926       -0.62421625570339
C            2.99026808758544       -0.54299127898021       -1.66270332737849
O            4.03633550839937       -0.24433673806356       -2.39774310760460
C            2.35280421838503       -1.82681651975846       -1.99207826050216
O            2.68983555650053       -2.60483229911137       -2.84535902780577
N            1.26303229479032       -2.10211585198003       -1.16350437746808
C            0.73369876786967       -1.30811024474542       -0.22339740831611
C           -0.49416165699334       -1.83819254956678        0.51918664639849
C           -1.04380118076658       -3.13292370742357       -0.09401600070012
C           -0.08795117974399       -2.09947389152416        1.97988821992146
N           -1.54279823387707       -0.82170544497799        0.40951881519461
C           -2.71276666900679       -0.90004023050589        1.11352814144665
O           -2.94585418922670       -1.69703174888356        1.99790218142159
C           -3.66840922243515        0.14678131672785        0.69634514252659
N           -4.86052433295624        0.37001037601062        1.15292544255117
N           -5.35005750028687        1.43839901124962        0.46895756964758
C           -4.42759926718831        1.80530553886211       -0.36599703941991
C           -4.46667028994050        2.92315905504568       -1.33259872097422
O           -3.33549758107710        1.02791969876849       -0.27345628498500
N            1.34053062174929       -0.16206994496092        0.04696832771092
C            0.77901247533351        0.80364648218380        1.00207736381877
H            5.11642523222765        2.57618066604438        1.32972954111847
H            3.84761094043590        3.02607147805898        2.51755301791913
H            3.85703076190797        3.76078369242574        0.88081845977120
H            4.41189774937645        0.63880712662938       -2.14699351752660
H            0.81820722022194       -2.98767567451163       -1.37085950590492
H           -0.33112102618561       -3.94938652513565        0.00733281159076
H           -1.94829813062598       -3.40251787100701        0.45052117075770
H           -1.30424074793532       -2.98664782953981       -1.14037120372900
H           -0.86418599420430       -2.67973664848629        2.47517772195051
H            0.05486733204336       -1.17133926903343        2.52593649293556
H            0.84028479188801       -2.66845325837972        1.99367704550633
H           -1.56099174992665       -0.28814241226686       -0.44406851803624
H           -5.44321295571392        3.40170392041290       -1.30531225730950
H           -3.69500364810414        3.65181256810553       -1.08420681755677
H           -4.26412869537410        2.55126562718887       -2.33654261165290
H           -0.27297916411135        0.59326508887052        1.15654882160159
H            1.31933055777701        0.72908870816571        1.94305330030931
H            0.88634311907528        1.80045439429023        0.58379126811383
