42
 energy: -83.011699341820 gnorm: 0.000658162337 xtb: 6.5.1 (579679a)
C            4.96919759071126       -2.25678205527216        0.03625395416799
O            3.83971246309028       -1.38096697627630        0.14747771375657
C            4.05627732659615       -0.10100271419856       -0.10355246742096
O            5.12422360459701        0.35894759980605       -0.42297098923096
C            2.78059698645573        0.71630377502305        0.02552539636162
N            1.75229945214368        0.08535885055779        0.76128786764637
C            0.57169075289737        0.55804479545787        0.69513092234560
C           -0.52789529643733       -0.00430881199960        1.57173359170693
C           -0.81188471350067        0.99093093351410        2.70024821676918
C           -0.12420686290258       -1.37238435306640        2.12695234786248
N           -1.74467721112506       -0.13011307399955        0.76688652459978
C           -1.73160657401997       -0.79038378531806       -0.41445626001275
O           -0.71925680407237       -1.18976190105853       -0.96504307269683
C           -3.08012485482931       -0.94692782609895       -1.00628402485350
N           -3.39251297062814       -1.49436984721534       -2.13962340412684
N           -4.74655129262193       -1.40978743912579       -2.25688359843157
C           -5.17867500883303       -0.81624925099627       -1.18773673083646
C           -6.57551493798279       -0.48548755079231       -0.83402910170568
O           -4.17444173766098       -0.49662745506036       -0.35521569670352
N            0.19771223167214        1.58803381558403       -0.14245699753880
C            0.97842626138340        2.03444837048329       -1.18001708162901
O            0.50593718424209        2.60992511522758       -2.13726695577633
C            2.44132305810059        1.74013300383492       -1.02224926048376
C            3.29881547673479        2.01419135563168       -2.23392141200023
O            2.95852920587433        2.08528487637994        0.23885789031440
H            5.73983622152867       -1.96237896611373        0.75143283415569
H            4.60765059006149       -3.25818324460059        0.25757767615310
H            5.37630251730299       -2.21156726598040       -0.97596316775115
H           -1.61035372190321        0.61067421659861        3.33388676890899
H           -1.11402077319449        1.95193563866442        2.28775905467979
H            0.08358377458962        1.12838775847572        3.30440037856546
H            0.09580767794610       -2.05639256546735        1.30819656872885
H            0.76491037847960       -1.26539361700533        2.74638063570521
H           -0.93511595183148       -1.77796887955186        2.72764384965745
H           -2.62493070058623        0.07893592837424        1.20511597616828
H           -6.68138220521242        0.59212847423268       -0.71067284124505
H           -7.24497055100927       -0.83185121640838       -1.61766018390344
H           -6.84003281065605       -0.95874403806220        0.11113310379840
H           -0.78802838852057        1.79353257599172       -0.20979919795407
H            3.11898192234767        1.25741517829897       -2.99619120444532
H            3.03327494948610        2.98931441007025       -2.64232406277724
H            4.35109474130504        2.01370916144156       -1.96032456053827
