33
 energy: -58.559402870994 gnorm: 0.000692606962 xtb: 6.5.1 (579679a)
C            3.91454571904642       -1.00700342661685       -2.16365267479441
O            2.71450198168268       -0.69178716645312       -1.46639754448833
C            2.76009906754345        0.38491396044365       -0.66088980794228
O            3.78730005598084        1.04097554947601       -0.55572588801142
C            1.48606839847128        0.65749233658873        0.04313482325887
C            1.37098415373230        1.79249431906955        0.85971355630983
O            2.43634671840370        2.64987904908631        1.14240673762325
C            0.09662346936740        2.14971293344028        1.38910313197517
O           -0.17372536979812        3.14873412765202        2.07922339421632
N           -0.94898882047308        1.31233239216102        0.98176030528682
C           -0.69530672826783       -0.07703286998029        0.60412764999820
C           -0.53420450521751       -0.93913237168604        1.88222454945953
C           -1.88901007362542       -0.56364698483725       -0.28453657183677
C           -3.25579433568594       -0.40494041505300        0.40268298095658
C           -1.87897354885241        0.24506930521282       -1.58746018753144
N           -1.68075458707466       -1.97476973028726       -0.62456146318865
N            0.51491027239206       -0.21930360968801       -0.17976970728503
H            4.73948778459430       -1.15436306398910       -1.46071529357197
H            3.72907246431094       -1.92671694469478       -2.71675131935452
H            4.17804369578389       -0.20219790999440       -2.85611167867036
H            3.22597943630718        2.34484585341636        0.65970733424635
H           -1.77829345459176        1.43540210435329        1.54496786207632
H           -0.27528133454277       -1.95941898243489        1.60591461759587
H            0.27230456217239       -0.52970404335674        2.49041219510195
H           -1.44694784215052       -0.94609189615466        2.47326555723098
H           -3.28833557538577       -0.94957013288362        1.34495025578422
H           -4.03230038345214       -0.80916434039932       -0.24664551754066
H           -3.48507408400510        0.64316948083276        0.59229717299734
H           -1.97107227699794        1.30904690431592       -1.36519790564401
H           -2.70834332103165       -0.05334088694081       -2.22807960900172
H           -0.94117044551929        0.07432724434259       -2.11949193588830
H           -2.34890700768814       -2.23524408065128       -1.33814136245277
H           -1.89378408542887       -2.54496970428986        0.18471634308456
