43
 energy: -83.124009102493 gnorm: 0.000325179505 xtb: 6.5.1 (579679a)
C            6.56063417395926       -0.09166653135809       -0.67505847832527
O            5.31171260455474       -0.04212927872876        0.03745771071307
C            4.22107496252216        0.11260483046603       -0.67907519109784
O            4.17587337599697        0.22574371034591       -1.87521056764211
C            2.96070962527552        0.13248727796507        0.17143815802245
C            2.86564794146237       -0.34849442859284        1.49493348764884
O            3.84638438803433       -0.85723564112119        2.14933789654816
C            1.56276599329947       -0.27971210039829        2.21777733532383
O            1.48884898522439       -0.66931551069570        3.36475000788019
N            0.55916831392858        0.25773967038742        1.49697312979550
C            0.63950273440610        0.62938589842593        0.12138767044305
C           -0.01047145397382        2.00197841409286       -0.08508376771043
C           -0.17128760919184       -0.49434975839521       -0.80628848440258
C            0.28647927613735       -0.36157011220054       -2.25517923177961
C            0.15547806774695       -1.87709583137985       -0.25639762511511
N           -1.56345178472468       -0.19752112104907       -0.75564874332270
C           -2.38992919731481       -0.35485607390430        0.32969543728200
O           -2.02801151376805       -0.74731756226216        1.41982567080764
C           -3.76567072039720        0.03912073943898       -0.00474008399112
N           -4.17530600733116        0.49276585160520       -1.15486271955335
N           -5.49775552547333        0.74905880038225       -1.02551320628252
C           -5.82129780896564        0.43917331789661        0.19935583787020
C           -7.15029637689890        0.54477736395898        0.83669991815704
O           -4.76803772705471       -0.01446442134400        0.88857287520969
N            1.90624153173471        0.62262612867101       -0.42659127514208
H            7.33855170754016       -0.17577026078323        0.08028592995436
H            6.68675766515350        0.82026302122944       -1.26156316899651
H            6.56844846199834       -0.95947645619712       -1.33701976692663
H            3.56171976643402       -1.13690744162444        3.05085710869471
H           -0.36105750285533        0.27165304903670        1.93052924758349
H            0.54321860569518        2.73376391464418        0.50029409301596
H           -1.04295630327459        1.97643107114608        0.25247891978936
H            0.02830290142500        2.27718928107017       -1.13576752318051
H           -0.31605182056319       -1.02715856217991       -2.87210513758580
H            0.16431607069429        0.65711360728111       -2.61734037851590
H            1.33542165237409       -0.63992142671338       -2.34471011266328
H           -0.29107974760451       -2.61672925660395       -0.92055011458503
H            1.23348481907296       -2.02751846738690       -0.24312496250034
H           -0.23787413715571       -2.02051034927930        0.74632323002215
H           -1.97237699875565        0.25319450696519       -1.56484788295478
H           -7.85966608468047        0.98024212636775        0.13727337044499
H           -7.08299804873180        1.16629862376599        1.72947757192014
H           -7.49516625595705       -0.44389261294625        1.14095581514480
