43
 energy: -83.129211631198 gnorm: 0.000908425156 xtb: 6.5.1 (579679a)
C            6.74104205876289        1.73862679734962       -0.80026960603351
C            5.80556528676829        0.69791174240265       -1.27743850432684
N            5.94924423431845       -0.10238774761712       -2.28848648232839
N            4.83550107695508       -0.88120495848127       -2.33557347000914
C            4.07655800708374       -0.50988653100044       -1.35190496634936
C            2.76138380230816       -1.06098413559362       -0.96404969173874
O            2.24944601127850       -1.99471809747715       -1.57121945972700
N            2.21093395846888       -0.41767253549991        0.08365311512737
C            1.00792605472078       -0.83066811449550        0.81666840895629
C            1.08640162698213       -2.32161790149236        1.17858969293908
C            0.94974072792276        0.01854000122089        2.08761626622490
C           -0.24061017426684       -0.58395742968759       -0.01368903624845
N           -1.22132139027315        0.07029796211311        0.51429537617505
C           -2.38916809196705        0.24983011785485       -0.19417112530330
C           -3.35075706172846        1.04659877887059        0.53424937557298
O           -3.23802642526210        1.68158517745798        1.52386374481925
O           -4.69314293943217        1.10939058724396       -0.15040595273167
C           -5.45925788517855        2.29064523251429        0.22683046824810
C           -5.47338901675639       -0.12315148501638       -0.10770170057343
C           -2.51120158341264       -0.24253212694890       -1.47252037051884
O           -3.58383542790265       -0.10452014096115       -2.23496338191752
C           -1.39266706227721       -0.98176035424934       -2.08122194006391
O           -1.46776294680644       -1.42939870493432       -3.21054651064692
N           -0.30620829103974       -1.11464579675593       -1.26655547170595
O            4.64002050509494        0.49173480511601       -0.64257853998840
H            7.66112112843339        1.70084029951951       -1.37904652823238
H            6.96073361981485        1.58179990257524        0.25519064325203
H            6.28431019316661        2.72288374882314       -0.90539916404548
H            2.73565692500587        0.34017021454966        0.49246357046147
H            1.98419068477771       -2.50230100320191        1.76724546962675
H            1.11497489119459       -2.94055786397232        0.28458750656031
H            0.21211581739157       -2.59306927998949        1.76762766962359
H            0.08138961628040       -0.26621290609203        2.67894418970327
H            1.85012744212971       -0.13897909896341        2.67802336412208
H            0.86586481975658        1.07352147033384        1.83217952001051
H           -4.81386936770274        3.14897511119315        0.05573393760358
H           -5.75112125086287        2.21846626573072        1.27425857331158
H           -6.32633589231426        2.31516838888381       -0.42750649168761
H           -6.16779067755933       -0.07752762812902       -0.94308870323902
H           -4.78226102803566       -0.95190028128366       -0.22817399142299
H           -5.99458866237817       -0.18412258139151        0.84718352572787
H           -3.41315301876125       -0.51461227744257       -3.10989135186846
H            0.51222270540379       -1.62859862294914       -1.62197197719417
