42
 energy: -82.886529888635 gnorm: 0.000640180027 xtb: 6.5.1 (579679a)
C            6.95546594763917        0.44708757094244        0.47923351673416
O            5.62345908589129        0.96485160309099        0.41145855745381
C            4.65389025364214        0.08057511569816        0.21833934457032
O            4.84593063594415       -1.10834784710479        0.09567762969514
C            3.28463393874322        0.68584126340846        0.17685535633221
N            2.31115485077609       -0.21496335576763        0.05896364186085
C            1.04150450047256        0.13579109477343        0.02400411379906
C            0.04276671509893       -0.98086929805355       -0.06526892607340
C            0.08153055319617       -1.71823745063585        1.29495683739006
C            0.49313598421393       -1.94500271262920       -1.18931351497169
N           -1.27821599126627       -0.48495952909053       -0.32334015190751
C           -2.43965682781156       -1.38139234606918       -0.47709938777482
C           -2.89159149775757       -1.16233316418799       -1.99323700784079
O           -2.27458119730509       -2.61674722275470       -0.20068069213387
C           -3.57858455625635       -0.69198728176708        0.30148049944812
N           -4.43827010723963       -1.24576648233848        1.08484242265121
N           -5.26219956399553       -0.23826095080689        1.51545753111892
C           -4.85415478844401        0.85245268125450        0.95458056762150
C           -5.42092722272233        2.21138211499180        1.09848483032700
O           -3.78151259598321        0.63384063075335        0.16522303374257
N            0.66641058483122        1.42665053353458        0.11941360798248
C            1.55402672083802        2.49420360379914        0.23806678779160
O            1.13435796919135        3.62402071270040        0.33563437213118
C            3.02314660653706        2.11212136446163        0.25021401692064
O            3.87274685042590        2.98660232921553        0.32180494600376
H            7.61577310364832        1.30210951005904        0.60808396631811
H            7.04702739247641       -0.23590536987346        1.32712999312864
H            7.19731289000251       -0.08708742943963       -0.44243830200849
H           -0.53632794583695       -2.61183338447437        1.25272659653838
H           -0.28897476131553       -1.05645149604397        2.07515221405273
H            1.10908423872667       -2.00099798240114        1.51505982027585
H            0.45839565032379       -1.43043271413318       -2.14669767388909
H            1.51250440681172       -2.26892668158359       -0.98771885141342
H           -0.16644790764242       -2.80871752606561       -1.21469786009601
H           -1.36395000112058        0.38447969999434       -0.82236515228368
H           -2.08700454448700       -1.52396186572522       -2.62487870502945
H           -3.08815946567711       -0.11251070778002       -2.17967005157106
H           -3.78794915766690       -1.75725105860657       -2.14298570770880
H           -4.70685224308053        2.86652076683332        1.59720241045429
H           -6.33559209760005        2.16272938951043        1.68508961436339
H           -5.63435343333479        2.63113079237082        0.11616095737768
H           -0.30895197287898        1.68055407991752        0.12753479862124
