46
 energy: -86.361352863142 gnorm: 0.000343355924 xtb: 6.5.1 (579679a)
C           -6.06574357824633       -3.33300379510521        1.45383409241931
O           -5.29602196724821       -2.14659370755762        1.23110858163043
C           -4.14297499394386       -2.30044348527343        0.58682869605025
O           -3.73742668619838       -3.37045268185491        0.19404957287986
C           -3.39733872940180       -1.02054315785451        0.39576753646549
N           -2.22201306905485       -1.16562059456030       -0.29027515542437
C           -1.44490327468321       -0.16447977764815       -0.53691304482965
C           -0.20409455990964       -0.47505994201501       -1.36355752503785
C           -0.32714690170532        0.17164447718038       -2.74999531717726
C           -0.05047913591848       -1.99536416225126       -1.50566741613286
N            0.97782098300302        0.02825527519740       -0.63556991049234
C            2.21494785762584        0.03084096824164       -1.15770574434621
O            2.54124231765814       -0.25680752096528       -2.28651534134811
C            3.22358803253170        0.48143919311217       -0.13364412875724
N            2.99845941495010        0.84572614372161        1.09314633860075
N            4.21121631363611        1.15132841656261        1.59263203761703
C            4.32702404816828        1.61407488453490        2.96191070575236
C            5.13429484925609        0.96926118956099        0.66997617094525
C            6.59035347979649        1.16231439334999        0.75241560117796
O            4.53383897256097        0.54657692445277       -0.42382421430747
N           -1.75681193968828        1.11004407856903       -0.13197938092000
C           -0.94933490445647        2.30659194984238       -0.37162684736821
C           -2.92787067259292        1.37009096892816        0.55863425092509
O           -3.23087435276160        2.50100355116783        0.92175467898722
C           -3.77752125278653        0.21859896411646        0.82959559184497
O           -4.90091706348701        0.48384198473561        1.50194461301025
H           -5.49553032463968       -4.04015373007097        2.06081810347709
H           -6.96771230302136       -3.02466705317744        1.97864197330143
H           -6.32090298702291       -3.79941374462089        0.49914355883099
H           -0.21175269208989        1.25079705176939       -2.69460416950383
H            0.43304909931990       -0.22562231773078       -3.41953356511276
H           -1.31055443700575       -0.05859952746864       -3.15883621318496
H            0.85017698085651       -2.21852801526863       -2.07420494840871
H           -0.91516818851079       -2.40320798580906       -2.02638500314383
H            0.02100825960821       -2.45660598350369       -0.52238495970977
H            0.88756466021749        0.17416035455290        0.35624951910077
H            5.05933016555949        1.00124083442814        3.48369771338084
H            4.64667725003531        2.65522198913552        2.95758967469323
H            3.34788390754294        1.51969335146617        3.42408436505955
H            7.08258590634518        0.18759213128843        0.79271039467506
H            6.85088223440676        1.73222301443030        1.64046015899809
H            6.93952736515218        1.67531216640275       -0.14460260681399
H           -1.42718720752041        2.90815435270838       -1.14524361100129
H           -0.91889382109652        2.87924387468319        0.55498929429244
H            0.05645093328946        2.04081686361019       -0.66885525969905
H           -4.92875098854328        1.43907783499858        1.69966813857325
