42
 energy: -82.929266879393 gnorm: 0.000803867842 xtb: 6.5.1 (579679a)
C            2.86733242683017        3.10934351529886        1.04244011193581
O            2.60428229228435        1.76210928117705        0.64394831750607
C            3.58681171754590        0.88114174404077        0.85204453816683
O            4.64195495943947        1.17841127743839        1.36187537703459
C            3.22441064086494       -0.48506410373152        0.37197978376079
N            1.97444559397589       -0.66120394822794       -0.10358659545475
C            1.64018836940261       -1.85327508043794       -0.59594483100187
C            0.23556434796166       -1.99935860617795       -1.15143373751726
C            0.30388111306005       -1.91093737639425       -2.68380496303109
C           -0.37158108725157       -3.33411689538574       -0.70424322877599
N           -0.55567896529845       -0.88936507577465       -0.62310213397586
C           -1.85107253543835       -0.68565289152296       -0.89949636090657
O           -2.55821071065613       -1.36537459824740       -1.62111969457724
C           -2.36649862382456        0.51183477793996       -0.16718988187509
N           -1.62810216506583        1.26562053418211        0.67558441105514
N           -2.37785520540040        2.17735040199467        1.16621602917056
C           -3.70410722924688        2.04128597680217        0.62771747934841
C           -4.08443632406599        3.28943813859079       -0.17249604542790
C           -4.70664895316864        1.73278391063084        1.74314815038290
O           -3.60010281349701        0.91648539245145       -0.24655414840205
N            2.42904433869537       -2.89978459151860       -0.71911840476440
C            3.70306894262395       -2.83151590241839       -0.23723014100933
O            4.50449041592764       -3.76685520543869       -0.24573025618618
C            4.11889392187133       -1.53913344963424        0.34198443194299
O            5.35496296374010       -1.48784038638311        0.82360799718194
H            3.01601862848374        3.16043934798612        2.12382491621151
H            1.99753690147236        3.69494237261325        0.75349222191869
H            3.76053899025833        3.48442724534549        0.53648412980210
H           -0.68619698481589       -2.04590360777101       -3.11464638433165
H            0.69603642100764       -0.94003227371572       -2.98230225464657
H            0.96590125105915       -2.69275946844369       -3.05312272327722
H           -1.34261617206978       -3.48612961820209       -1.17097839052390
H            0.30022785018219       -4.13944586791800       -0.99804534919654
H           -0.48830589428321       -3.34599960517801        0.37827986115727
H           -0.05248162453165       -0.22597270513598       -0.04059576807017
H           -5.06424296060829        3.14269330955880       -0.62014213926681
H           -4.10881877938006        4.14548361994381        0.49684223887631
H           -3.34600573839898        3.45623086112674       -0.95362473051480
H           -4.39389016652098        0.83465974453719        2.27147642433494
H           -4.73936486751363        2.57142313435954        2.43369860221701
H           -5.68953195534930        1.57553576282491        1.30581674741062
H            5.79015966969861       -2.34591809119389        0.64220939332167
