42
 energy: -82.929919864174 gnorm: 0.000416555715 xtb: 6.5.1 (579679a)
C           -6.99656786085909       -0.67581695773684        0.61438969069760
O           -5.61458460578634       -0.57163853534882        0.98878922739778
C           -4.76405720653203       -0.25641348634622        0.00113789348974
O           -5.12374424737717       -0.07312426410829       -1.13656253422943
C           -3.34485587789021       -0.16001135156228        0.45260207252906
N           -2.48080263899627        0.13235834315198       -0.53552162514056
C           -1.18198321773097        0.21583834892171       -0.23787681134985
C           -0.27205922874460        0.53536935857432       -1.40872865939158
C           -0.52175693291176       -0.46917601108255       -2.54141844556869
C           -0.54719345572400        1.97246406608616       -1.87703244091065
N            1.10196573303946        0.42340029663011       -0.92894943596058
C            2.18398405471405        0.60330486979513       -1.69500192801188
O            2.19711208718293        0.89193348486936       -2.88145407370896
C            3.45425202722213        0.40040110732670       -0.93867476039027
N            4.68891462314485        0.47850745623932       -1.47401710524628
N            5.54532973343457        0.23382057407763       -0.55599478547111
C            4.85891409859442       -0.02624367136739        0.68054869425023
C            5.13283831325716       -1.45579801254512        1.15390002736924
C            5.23455244853435        1.02129193054032        1.73074145990769
O            3.47770639228954        0.10842237523983        0.33459535870935
N           -0.63864925026017        0.05515077332306        0.94471538843516
C           -1.43305036732869       -0.22607975525651        2.03165653179127
O           -0.97193829429328       -0.36637550194831        3.15880289633693
C           -2.88551328247031       -0.34966978445100        1.75133113134573
O           -3.64261073669973       -0.63307389075144        2.80433007976706
H           -7.54086396330013       -0.97190425316013        1.50724008643410
H           -7.11283363029569       -1.42683905361392       -0.16999710315985
H           -7.35443450436697        0.28990787680369        0.25126024241715
H           -0.24720495252790       -1.47117739543813       -2.21507740364022
H            0.06225664384090       -0.20527643952736       -3.42098662679865
H           -1.58069382776733       -0.45538854569612       -2.79552008235641
H           -0.32314573405799        2.67367811681226       -1.07472760508004
H            0.06737307196415        2.21074978625689       -2.74327427404492
H           -1.59862467423026        2.06177141795639       -2.14583581840174
H            1.20184517356282        0.20215183250064        0.05807131012013
H            4.56662516697216       -1.64710284023214        2.06209167422915
H            4.82894518087898       -2.15706959403114        0.37974335780844
H            6.19568835768265       -1.56679272665116        1.35201732240161
H            6.29593032870111        0.93922369048093        1.95007653520091
H            5.01573330438845        2.01453274236043        1.34454234014101
H            4.65695246381498        0.84531293764071        2.63486759162783
H           -4.58975071309275       -0.70305931472113        2.58919760647303
