42
 energy: -82.973292770032 gnorm: 0.000679426983 xtb: 6.5.1 (579679a)
C           -3.55840884626366       -1.33926381367034        1.91849780207219
O           -3.32243921901453       -1.94813682102480        0.64819756706188
C           -3.60932601170702       -1.24911544009747       -0.48198806980085
C           -4.08471067317358       -2.16484035708961       -1.58364604631996
O           -4.15659743975586        0.00530649377752       -0.36280213097247
C           -2.80503785338674        0.03541229622049       -0.79964536544830
N           -1.87512957864221        0.42602181989153        0.18536330650367
C           -0.71577790034961        0.82697896460526       -0.15259631829493
C            0.27699267449998        1.28430661893167        0.89588873751310
C            0.23904586480530        2.82093648829148        0.91544551569940
C           -0.07000295389375        0.70328639189014        2.26827161445625
N            1.60307768304019        0.81409570357295        0.48048956560938
C            2.73584171491780        1.13540698871966        1.14956052592252
O            2.81260632887276        1.92025165793777        2.07778535334551
C            3.92853026731671        0.43837961153389        0.60893639340470
N            5.15783324661642        0.55001563261767        1.00579011107500
N            5.90258196447325       -0.27377568360031        0.21703537785651
C            5.08239571120148       -0.83864047630517       -0.61343436202144
C            5.39758567460882       -1.81976699795570       -1.67398036156753
O            3.81677560098781       -0.43162095207855       -0.41880264825693
N           -0.31534695400111        0.96885563064915       -1.46976160817205
C           -1.13257887422175        0.80319059904335       -2.55386383922294
O           -0.74451292020235        0.98664551469380       -3.68576356554426
C           -2.56890370288154        0.40956576348402       -2.21144157676031
O           -3.41930189551494        0.36916516900293       -3.07374492434752
H           -2.83446484984215       -0.54349157446381        2.10635085118519
H           -4.57068771723872       -0.92896715310003        1.96451911590968
H           -3.43972722077283       -2.12967105860623        2.65809242749123
H           -3.31398363043933       -2.90044719745254       -1.80247998727097
H           -4.97238206144835       -2.68477932285045       -1.22638907349802
H           -4.33605567909742       -1.60568386452217       -2.47998719198408
H           -0.78139950325598        3.15086365543727        1.10554619914642
H            0.56791041340315        3.21341573637793       -0.04512545475247
H            0.88771074426463        3.20535835837757        1.69980366571081
H            0.63985343041455        1.06171031476544        3.01156918784106
H           -1.07280311548344        1.01661941353342        2.55322931362265
H           -0.03244610380523       -0.38396333352332        2.23124851708354
H            1.64468165292792        0.03464289759306       -0.15473020871610
H            4.87501717516042       -2.75639975477529       -1.47950486337398
H            5.06269276789941       -1.44291795827598       -2.64000377811246
H            6.46999110877553       -1.99851072204071       -1.70163128191713
H            0.63090068020556        1.25955876047618       -1.66543149215266
