42
 energy: -83.615160087632 gnorm: 0.000421930284 xtb: 6.5.1 (579679a)
C           -6.08800269775605       -0.56813857352262        0.55740333933125
O           -5.07815237846068        0.34870129423928        0.15978240557092
C           -3.81415314738902       -0.14566183057014        0.08242061084316
O           -3.57364858434199       -1.32063470388492        0.32217282537083
C           -2.78374962034103        0.93730199541055       -0.18523038677858
C           -3.32630047178270        2.04194954703196       -1.09547022883065
N           -1.60081145850609        0.35116005044615       -0.79384742175348
C           -0.75842426494617       -0.22364366654124       -0.01598969245255
C            0.41169005808832       -0.99462515260820       -0.61225206450097
C            0.53853730590764       -0.67928427937298       -2.10861249432008
C            0.14374283867444       -2.49165208538395       -0.39566600021397
N            1.61430806499700       -0.57630605745258        0.11597412723355
C            2.88020575268352       -1.03168167517639       -0.28218913106193
O            3.06269474895077       -2.10896998844866       -0.88531031680248
C            3.90979351047682       -0.13407866922854        0.14100575588483
N            3.72772507210462        1.03907244726489        0.75449046421302
N            4.97129517036648        1.57975110506897        0.93503633343312
C            5.82830801042134        0.74757306250733        0.44154921787009
C            7.30369077816311        0.90358458849233        0.40283846976456
O            5.25330777734943       -0.36199925305292       -0.08024153263611
N           -0.85483688574165       -0.22515217224321        1.34047607105648
C           -1.61801771902327        0.76462410892348        2.04564153117640
O           -1.30542645979381        0.95690366701447        3.25679989577319
C           -2.58028147687453        1.45039738609513        1.27098636834424
O           -3.31171884087391        2.41604288999343        1.67928958619717
H           -5.88836085944140       -0.96114664486003        1.55956496307272
H           -7.03153638101038       -0.02431225077769        0.55565978075486
H           -6.14539698133363       -1.40595225275361       -0.14447128572091
H           -3.68275252824258        1.62071678884109       -2.03479127401174
H           -4.14593118027341        2.56599576517278       -0.60469529302410
H           -2.53083480684081        2.75514381184793       -1.31170234507135
H           -0.39463335299511       -0.92644014418468       -2.61399816791883
H            1.34729297989929       -1.25785411129600       -2.55198158029118
H            0.73852047031942        0.38236084616916       -2.25147892330839
H            0.90530959701670       -3.09607838679852       -0.88458252174306
H            0.14269271223780       -2.72123156160174        0.66951253154440
H           -0.83091045200021       -2.74742556227330       -0.81197710470736
H            1.62150114472976        0.41696416844080        0.33171235510129
H            7.57864897446273        1.85997022355332        0.84122845001220
H            7.66308004487854        0.86255608977133       -0.62552445628087
H            7.78709829618311        0.10054833294883        0.95975289180374
H           -0.08555975993961       -0.61249814720437        1.86671424706852
