42
 energy: -82.979320506341 gnorm: 0.000318168111 xtb: 6.5.1 (579679a)
C           -6.96692024401939       -0.37880925292880       -1.71113483659565
O           -5.82406809035393        0.37903650136131       -1.33740372609703
C           -4.80260321365663       -0.32476273703173       -0.79035481724182
O           -4.88465515379097       -1.53953004400523       -0.65188816049783
C           -3.65385564233953        0.47786869257841       -0.39417658598717
N           -2.64877167787265       -0.27790547571794        0.17939830489413
C           -1.57610684925429        0.27091550034521        0.61266829259988
C           -0.52505209500917       -0.58781370430855        1.29396643117688
C           -0.42051731640368       -0.24149139935284        2.78376748739463
C           -0.89184089994919       -2.06245375126794        1.11977421069662
N            0.79682875390010       -0.41543744973862        0.64168859067301
C            1.63805342052789        0.60065455036939        0.83343197853869
O            1.43878484078660        1.63313519290497        1.44604368411084
C            2.97434702917254        0.37429102034497        0.17875666366509
N            3.99492537437164        1.17744477839091        0.19784135335630
N            4.96250791140023        0.52507976202572       -0.47256647066533
C            6.27452431961873        1.12056452254032       -0.61616767241175
C            4.52150361982743       -0.64691536651284       -0.87734097445264
C            5.22912185115495       -1.70147604681612       -1.61999193500758
O            3.26898501990806       -0.76458868103965       -0.48246738864020
N           -1.37283140416186        1.63190991964307        0.53381288956677
C           -2.26498186658443        2.49889047576139       -0.04430427591035
O           -1.99504599998593        3.69542587074166       -0.11313966646611
C           -3.55115760419747        1.88489608874613       -0.55493419842394
O           -4.40347267511730        2.63265236111576       -1.06621818155067
H           -7.38539982478145       -0.90029761479791       -0.84447876566505
H           -6.70811808407116       -1.11833914836271       -2.47522624521257
H           -7.69973176397630        0.32212219395074       -2.10932925578703
H           -1.35836090520713       -0.50227696462996        3.27276167696301
H            0.38683164087527       -0.81152006009920        3.23906987130920
H           -0.23156578126318        0.81952526327728        2.93143036675673
H           -0.95545820943280       -2.31086700723231        0.06129858858939
H           -0.14226710861048       -2.69293428310814        1.59280801546244
H           -1.86197294159740       -2.25218946110251        1.57757571824683
H            1.13826989263874       -1.20640636740962        0.12278047433566
H            6.94352060907695        0.67612191480850        0.11954080416946
H            6.64416351363720        0.92165856529025       -1.61913122837625
H            6.18116250207138        2.18980033560836       -0.44273339017514
H            5.76103379939209       -1.27445711178992       -2.47004623589383
H            5.96548415490975       -2.17604467924619       -0.96797896979934
H            4.51569711245031       -2.45017614376124       -1.95880559351457
H           -0.51098901408924        2.02666424045373        0.88139817187379
