38
 energy: -79.617277495097 gnorm: 0.000457306047 xtb: 6.5.1 (579679a)
C           -6.55860847229581       -0.12820042267883       -0.02786726577500
O           -5.21322978699476       -0.44920152555029       -0.36904538145399
C           -4.25825578597871        0.28202972281223        0.23180284603325
O           -4.53251017141699        1.17199609967964        1.01427542437495
C           -2.88175486843783       -0.10769941079347       -0.14610099296787
N           -1.89785043467950        0.61905392218152        0.47399815229484
C           -0.65019561386873        0.31014029471301        0.20467431016667
C            0.39987801055524        1.15029103854047        0.92452899611034
C            0.30981359424116        2.59848244302470        0.42238894799538
C            0.15430242113738        1.08136154126687        2.43746033791218
N            1.70927344303243        0.58742626582452        0.59936695004066
C            2.87157681477697        1.05257780457128        1.06078100499996
O            3.01562782232675        2.00845343705750        1.81515087872755
C            4.04869104348350        0.27908218214210        0.56960122803322
N            5.29911504527587        0.49764382196476        0.83987903365470
N            6.01804325011683       -0.45688252192314        0.17940762388930
C            5.16112960327295       -1.19693884616232       -0.45191230207246
C            5.43919274070771       -2.37046075662081       -1.30910083513563
O            3.89913665305396       -0.78560360396016       -0.24771296490325
N           -0.20748680344658       -0.63622490024815       -0.62259531139975
C           -1.11762707244978       -1.39004077696420       -1.28400301551464
O           -0.83027064428814       -2.29848967378243       -2.08720083464285
C           -2.53144819769927       -1.10357550979171       -1.01970634334573
O           -3.39943766389651       -1.88935003532996       -1.69548225815752
H           -7.19856883562319       -0.80259940094150       -0.59401151530498
H           -6.72410991154356       -0.26782671843580        1.04419375824621
H           -6.78292594349242        0.90963397327256       -0.29025269642477
H            1.00536274701741        3.23783306401323        0.96393441896056
H           -0.70557284332917        2.96262551012935        0.57592816620967
H            0.54335275247080        2.63901791901275       -0.64097541395897
H           -0.87228909172861        1.38515847780990        2.64085199493162
H            0.83537616608651        1.74220725303350        2.97124900738417
H            0.29711946970005        0.06083238032317        2.79124143597575
H            1.68639037470686       -0.20299336351987       -0.04191736345910
H            5.04117233640535       -2.20621212786401       -2.30988039332431
H            4.95851897107282       -3.25694380783288       -0.89602618818024
H            6.51225414562311       -2.53293059033076       -1.36628388429287
H           -2.84318726391284       -2.49367415862020       -2.23277655562136
