46
 energy: -86.310849856295 gnorm: 0.000335937256 xtb: 6.5.1 (579679a)
C            5.34063243244415       -1.50447658979283        2.04892548684841
C            5.07325766280317       -0.69063107931687        0.84369000024704
N            5.92595387321879       -0.04896366740943        0.10746857875219
N            5.21373775995758        0.55831089551103       -0.88152062569658
C            3.96955523721169        0.24992202727892       -0.69097369658731
C            2.79268585815436        0.67060151176155       -1.48728562425956
O            2.88484619601626        1.39694874332928       -2.45799009750399
N            1.64086210228468        0.12242007388863       -1.01580554642039
C            0.31447474033592        0.54701405337374       -1.47472109517892
C            0.17212193197681        0.44574082249818       -3.00093652132448
C            0.09809821988429        2.00044781654301       -1.03341701283209
C           -0.72037773228793       -0.35413606857300       -0.81276525467106
N           -1.65852992171676        0.24761961624288       -0.15056391153075
C           -2.68898128226899       -0.45100432574820        0.42262711668389
C           -3.70747942768283        0.27505970559689        1.13644768748263
O           -4.75913751659032       -0.05418800263409        1.56120258203945
O           -3.34683220431311        1.73632553780419        1.31438921122700
C           -4.50597012951465        2.54773220371588        1.66279129052687
C           -2.19324516460659        1.98016614345480        2.17148670675719
C           -2.75914166088992       -1.81882874486015        0.27949070753947
O           -3.71862840151461       -2.56865652809795        0.78079899141769
C           -1.70027820236468       -2.51659434181917       -0.45235273649404
O           -1.71845292420986       -3.72851419485576       -0.58834431915907
N           -0.69665970341269       -1.71754464776790       -0.96141415391303
C            0.35152894007647       -2.48170762510572       -1.64989483264238
O            3.81592143583637       -0.54340800843662        0.39246198368251
H            6.40664946414041       -1.50544075348137        2.26484264277232
H            4.79343238619342       -1.09551132304062        2.89800391482604
H            4.99651538083631       -2.52621176094850        1.89048990159148
H            1.67798877924865       -0.29314966646304       -0.09948312582291
H            0.51069151042522       -0.51889458249751       -3.36977772875289
H            0.75759806625437        1.22817223562343       -3.48041266095949
H           -0.87592312867163        0.57844502497100       -3.26549028571995
H            0.84526870771448        2.63578844140158       -1.50710611489931
H            0.19675064381166        2.08021055971563        0.04697508395373
H           -0.89546558697145        2.33533668944309       -1.32420820198601
H           -4.85046703158368        2.28369409395674        2.66247667428126
H           -5.26941830668030        2.34153332691470        0.91620795153644
H           -4.18145131051305        3.58354238068644        1.61470079191388
H           -1.98005046362939        3.04428201802766        2.10705686857520
H           -1.37086059303756        1.40007930072164        1.76314346306514
H           -2.42743362778059        1.68327219903112        3.19345777193819
H           -3.54207766888954       -3.51060719940501        0.57984009961136
H           -0.03219051680061       -2.81542621454391       -2.61402544491973
H            1.24050037828683       -1.87643270422371       -1.77819397295255
H            0.57997979885110       -3.35233839246560       -1.03539154305055
