42
 energy: -83.000697132469 gnorm: 0.000329445882 xtb: 6.5.1 (579679a)
C           -6.18922463140932       -0.05026870785341        1.08842370634402
O           -4.87106975505110        0.48779333374226        1.20529092454321
C           -3.91111779716315        0.02436531296651        0.43129884014057
O           -4.31046903424631       -0.94070589716394       -0.38034457631342
C           -3.49387778826324       -1.60224867413164       -1.34442133011313
C           -2.63150024542578        0.57722575324225        0.53356338151721
N           -1.63533135429193        0.04162238120877       -0.28029560270491
C           -0.44815098576183        0.51361819086143       -0.24407450569558
C            0.63849756845798       -0.02726376655251       -1.15001877687006
C            0.80869459900243        0.92273124291242       -2.33968391220066
C            0.30750285761519       -1.44380698729903       -1.62533148207824
N            1.90037288155015       -0.03756336357428       -0.40683622922544
C            2.02292087326722       -0.69699895220828        0.76693065905548
O            1.10032221857465       -1.22246260860177        1.36653139047062
C            3.41103168500677       -0.68476597924283        1.28891423838455
N            3.85013334248053       -1.19189053761614        2.39833924765378
N            5.18476167753937       -0.92191151944984        2.45322335737510
C            5.47841579945317       -0.26670899018582        1.37360102436714
C            6.79652630919018        0.25807773884772        0.95657856367948
O            4.40051144027037       -0.08263220580129        0.59398436538372
N           -0.08878837506980        1.57366384566827        0.55633291096631
C           -0.93729944207196        2.20167468072743        1.42580157398008
O           -0.55713254911077        3.13143255078811        2.11473196712571
C           -2.35843334983231        1.65842643109468        1.45244145068049
O           -3.17096595455298        2.16083343325464        2.22132427491103
H           -6.57513794718384        0.11054969883147        0.07993304337571
H           -6.79923300491858        0.48303123504039        1.81560929074915
H           -6.18461134408231       -1.11959458481740        1.30935584969541
H           -2.68128738381192       -2.14249958179036       -0.85633133481408
H           -4.15353270856291       -2.30234846166405       -1.85708758795648
H           -3.08113698060296       -0.88659325851439       -2.05674081874691
H            1.58385606534427        0.54908008838989       -3.00578902775304
H           -0.12810372388360        0.99039326960513       -2.89034679080259
H            1.08825880356092        1.91557256543111       -1.99143127436934
H            1.14863417941173       -1.84802175328033       -2.18462664063506
H            0.09896423508164       -2.08856243735619       -0.77231320495453
H           -0.56744275769148       -1.41486397890619       -2.27137424140932
H            2.72788754972785        0.27820986501378       -0.88215033284683
H            7.54277066839330        0.02613612892395        1.71274945452959
H            6.73799219190317        1.33725462182158        0.81685473521825
H            7.08779927576912       -0.18686938552536        0.00546267238106
H            0.85798989137470        1.91689026316081        0.50346174696855
