42
 energy: -83.635104898595 gnorm: 0.000197388251 xtb: 6.5.1 (579679a)
C            5.31464656159155        2.20340491149692        1.26930286448417
O            4.07751313001855        1.65717392004855        0.87534516233369
C            4.14859305962062        0.32827820591448        0.37620852352157
O            5.27403206820739       -0.21889590458773        0.33952127910739
C            2.91522438150962       -0.18652515799724       -0.01748309930415
N            1.80143670376211        0.63461052149210        0.01545740309489
C            0.65269602091751        0.18135009604498       -0.36563380735978
C           -0.52734930195361        1.15475770045307       -0.36747701530576
C           -0.37766935467416        2.17624403208905        0.76437160643297
C           -0.60053971200422        1.86596758515902       -1.72980604639326
N           -1.73377890356234        0.34633127309018       -0.17789003252941
C           -2.98272076017811        0.81013934320427       -0.07057555225949
O           -3.31541585707611        1.99543837935181       -0.05496982992330
C           -3.96084632350006       -0.29877115165803        0.06471111980710
N           -3.69019310041292       -1.57451811323378        0.06695838251173
N           -4.87738874380047       -2.22948131241007        0.23835039612553
C           -5.79288266925226       -1.31855267920109        0.33044818044264
C           -7.24684293794242       -1.51887275422254        0.52583625627512
O           -5.28696042816324       -0.07734778534110        0.22858856369468
N            0.33811434508005       -1.09736172450459       -0.75929498175868
C            1.30558509793514       -2.00048466066875       -0.80825037719357
O            1.10321826550766       -3.21552306881771       -1.04837939605371
C            2.79082980482360       -1.59533379201769       -0.55601122341091
C            3.55773351947600       -1.76181897038026       -1.88920986260164
O            3.31002095721637       -2.55806261244375        0.38462111384662
H            5.78551295192183        1.61118278863122        2.06623560622095
H            6.01837117970704        2.26284631276691        0.42769306430587
H            5.12518308854575        3.21174371983334        1.64371116463606
H           -1.16634208159704        2.92570664166522        0.72748193792797
H           -0.40959550585857        1.67183374639731        1.73035397939802
H            0.58912907115180        2.67054711375885        0.66282575210461
H           -1.43423389907702        2.56687955588470       -1.75811673801189
H           -0.72791169044993        1.13130170041092       -2.52476320112450
H            0.32676180429623        2.41215605971821       -1.89950113517648
H           -1.57592939804599       -0.65964457705699       -0.28405285775503
H           -7.79856386548177       -1.11727953316719       -0.32366548022950
H           -7.45866118603996       -2.58037609203869        0.62457661605230
H           -7.58137559748614       -0.99628347403493        1.42144430843443
H            3.38582419973803       -2.76005562625081       -2.29339405222833
H            4.62641731565070       -1.62753623862277       -1.72027840328942
H            3.21344495402694       -1.02153969725199       -2.61141988154326
H            2.88491283585647       -3.40362868151741        0.16805569269617
