16
 energy: -33.440526138464 gnorm: 0.000986850467 xtb: 6.5.1 (579679a)
C           -1.77367283939217       -1.31215161714694       -0.09307750956345
C           -0.48326183298139       -0.60678218777780       -0.06337381871308
O            0.66962325307058       -1.22503476384715       -0.19425815054657
C            1.61981543081538       -0.27487499469696       -0.10638271931019
C            3.06637492049020       -0.64037458030642       -0.20781352325797
O            3.43106779128697       -1.76342690004414       -0.35819609400788
Cl           4.10517994210573        0.70421807990222       -0.09157217232090
N            1.09024566928264        0.89808623170253        0.07238204580724
N           -0.23430783096983        0.67970547324631        0.09957479506009
C           -1.13839258435126        1.79674953046312        0.27682351733003
H           -1.60471532264324       -2.36616085357670       -0.30684029504775
H           -2.27344784876023       -1.20971475008847        0.87191698173350
H           -2.42370608557813       -0.87718701598400       -0.85306985921610
H           -2.13809044038371        1.40976201270683        0.44969721805567
H           -1.11580664569466        2.40686738068842       -0.62556654542884
H           -0.79690457629698        2.38032095475912        1.12975412942630
