42
 energy: -83.643836041741 gnorm: 0.000559185417 xtb: 6.5.1 (579679a)
C            5.24253552153295        2.07336257301512       -1.49251177614810
O            4.17510718875782        1.37452633278079       -0.87210019366792
C            4.19517418765453        1.36822823118030        0.50028732119183
O            5.08645262746898        1.95186654311448        1.10008780145270
C            3.08847862258939        0.62450621215185        1.07143895231024
N            2.22094436340279        0.05708914270645        0.15628374635901
C            1.20849451903565       -0.62411419297508        0.54681593887438
C            0.26613919977123       -1.26011156761774       -0.45935273988367
C            0.24590103141986       -2.78509241934052       -0.25525172764629
C            0.74776007833926       -0.91881215550798       -1.87479231665854
N           -1.06801832253859       -0.70043418886660       -0.22956532005879
C           -2.16758614476538       -1.07103549043897       -0.93763511384709
O           -2.11974965995603       -1.79845692191618       -1.93251823103757
C           -3.46188404269075       -0.34665275828365       -0.52039054090028
C           -4.66753484333855       -1.29765759643679       -0.64223402299394
N           -3.56319414103724        0.79134433732648       -1.44310331399390
N           -3.54342454929201        1.90150525211667       -0.65451319124122
C           -3.44551620677072        1.58197374932168        0.58154189406120
C           -3.42714637136750        2.48246043755229        1.76702473412525
O           -3.36134019036250        0.18708783105345        0.79428891068444
N            0.93612630049726       -0.81372041102210        1.88925120621196
C            1.72562296427735       -0.33473366082443        2.90241421344519
O            1.43636154750930       -0.58581211866580        4.07111490604911
C            2.92099609873125        0.48680335156049        2.47535488352074
O            3.66123038488338        0.96849835695180        3.35312871687535
H            5.10133950508032        1.98589189919949       -2.56917438060450
H            6.20753301781393        1.63835846117830       -1.21235111156883
H            5.23790734341464        3.13005494515022       -1.20489803117441
H           -0.14128903028493       -3.03144556007263        0.73186636431257
H           -0.38781052140963       -3.25474563782388       -1.00581951177309
H            1.25593160469427       -3.18190697323831       -0.34660902892976
H            1.77581840828285       -1.25796474018951       -1.99564386655881
H            0.12467785288828       -1.40892326184145       -2.62038520093009
H            0.71746638936231        0.15972617757698       -2.03102290027972
H           -1.23626310102079       -0.29781000141807        0.68312208635321
H           -4.60309360328616       -2.08548905898820        0.10649909054242
H           -5.58629769426280       -0.73424837780605       -0.49210179906421
H           -4.67522943424115       -1.74069149403160       -1.63662039364727
H           -3.60632221726394        3.50570651496110        1.43963537256069
H           -4.20312224764567        2.19981104443300        2.48170573745730
H           -2.46631773903418        2.44356566645208        2.28749465294095
H            0.15314030316863       -1.38250947253095        2.16827718330989
