21
 energy: -31.458329775944 gnorm: 0.000638742719 xtb: 6.5.1 (579679a)
C           -2.05710738599789       -1.32863924371083       -0.68959876875687
C           -1.64165593160438       -0.19827098751631        0.30735795077106
C           -0.25115980619077       -0.43272198710329        0.86661072444537
C            0.84100156527683        0.30622723381140        0.48964451809930
C            2.21401005632910       -0.09413232107692        1.00124681511240
N            2.95260552074134       -0.88936033700350        0.00456809353839
C            0.74490859513056        1.44196009252402       -0.34090138301425
C           -0.55453653969945        1.86801979733896       -0.71596159081531
C           -1.63661963341039        1.14139025203548       -0.36405690253470
F           -2.90811049942034        1.62679706148071       -0.67144914208358
H           -3.05810452119181       -1.14148123558423       -1.08186634189632
H           -2.05132220329009       -2.29464207189644       -0.18327122177248
H           -1.35344668369514       -1.36636905962959       -1.52165029829607
H           -2.39839230440209       -0.21591695666438        1.11738365130119
H           -0.14579563273614       -1.27079938609848        1.55125634103916
H            2.81801350737065        0.79310514044102        1.23556855123728
H            2.13468825716621       -0.69577896325003        1.91635089241755
H            2.41454834717265       -1.72346540716224       -0.20141201763981
H            3.00710821360429       -0.35483896145426       -0.85550897086378
H            1.61730130173466        2.02399332059575       -0.61263913027536
H           -0.68793422288743        2.80492401992421       -1.25167077001348
