42
 energy: -82.987033441513 gnorm: 0.000814052830 xtb: 6.5.1 (579679a)
C            6.54430016686119        1.71798534164517       -0.65033815444061
O            5.18404998920404        1.83715179027823       -0.22337123307900
C            4.39841537052032        0.78637298811077       -0.43997155316964
O            4.78194804295419       -0.23075489237587       -0.97062020900778
C            2.99135664749700        0.98588260033288        0.02977409034445
N            2.16905752894405       -0.05025648646341       -0.23027967645701
C            0.90738144308248        0.01806514570806        0.12612299376541
C            0.04337414364043       -1.19372450618908       -0.15797255707414
C            0.33578706098309       -1.72284227471932       -1.56710297452522
C            0.35433932243844       -2.25695167760754        0.90886691784653
N           -1.35627068437311       -0.77978316692776       -0.05172860436106
C           -2.38496200273410       -1.61083572390069       -0.22465845330095
O           -2.31148580140796       -2.78669235207263       -0.54239114637768
C           -3.77641294455262       -0.96607276979985        0.00342657972418
C           -4.55024426614142       -1.76132725085936        1.05392010578129
N           -4.49983551061452       -0.99320688798743       -1.26834516761306
N           -4.80697021283858        0.15973956915790       -1.60483842025687
C           -4.34961242541646        1.07866613204107       -0.64633960878040
C           -4.53942489832988        2.39441962662274       -0.69827680746572
O           -3.69354200043903        0.40168673785058        0.33495587325239
N            0.35000456079546        1.06212040038719        0.76474475083727
C            1.13047902947673        2.08104320977421        1.04452065785867
O            0.65386523487978        3.14902823865828        1.68934496029040
C            2.50242927681182        2.10490615806402        0.68613604299719
O            3.25352181764647        3.17491631136384        0.98989579472920
H            7.02317060584313        2.67002549050888       -0.43162678910170
H            6.58501950804284        1.50901302055575       -1.72197274459674
H            7.03853141580272        0.91034034769531       -0.10544399000758
H            1.40253964523578       -1.92351951608063       -1.65697725737285
H            0.05212368638178       -0.97823363185628       -2.30947163716958
H           -0.21757761149485       -2.64158268767653       -1.75114568265817
H            1.41584757206480       -2.49811740614874        0.87810548160948
H            0.10536583365071       -1.87040932100934        1.89574296774632
H           -0.22450256501655       -3.15969965902783        0.72158815104807
H           -1.52211209542154        0.15475731668169        0.29841220911147
H           -4.06195514209781       -1.65108571874079        2.01905002957658
H           -4.56350684759119       -2.81085911148396        0.76602676429851
H           -5.56776034969538       -1.38288158736890        1.11985385951419
H           -4.17216994233253        3.04656085560602        0.07618257760342
H           -0.27881245834375        3.04670107261482        1.91858768242800
H           -5.07033744118198        2.83463798232969       -1.52576136064205
H            2.72458529726847        3.84054929233562        1.45337353708911
