42
 energy: -83.673767437455 gnorm: 0.000265216361 xtb: 6.5.1 (579679a)
C           -6.34965884185135        1.23350859755766        0.16976082444390
O           -5.01339380065426        0.76434286280430        0.11405806737294
C           -4.82233619064007       -0.39636644463533       -0.59826174093849
O           -5.78131063543196       -0.95629782882176       -1.11423765988278
C           -3.43261684453476       -0.80145699810754       -0.64194247727183
N           -2.55308474475617        0.02256612750351        0.04591740843542
C           -1.29437942481278       -0.22754856288444        0.03495905945672
C           -0.29787232042773        0.62092739318990        0.81203443181075
C           -0.27150508660147        0.07519265684043        2.25624271540669
C           -0.78688951330447        2.07948973840896        0.80859620811976
N            0.99731041324071        0.47079059994426        0.15317574298558
C            2.01778770453172        1.11213523947714        0.65308240285201
O            2.10302332253788        1.85650234505034        1.65869432158786
C            3.32309677910658        0.91984089336536       -0.20441872408555
C            4.09557038717316        2.23675325549049       -0.29801119475732
N            3.02599717904991        0.40477988971667       -1.55281409883525
N            3.69249049329439       -0.85314831742911       -1.66017931412080
C            4.31811309044651       -1.03731709134571       -0.56966828128618
C            5.18839270684642       -2.20426424129236       -0.26157275481658
O            4.18067305752020       -0.08265371425047        0.37546973533191
N           -0.77871816758483       -1.31125392878509       -0.63703149799025
C           -1.52004829806993       -2.20879826870980       -1.34386766734909
O           -0.97140497881170       -3.14948048463674       -1.92547749242138
C           -3.01034915332310       -1.95320700911980       -1.35720361659579
O           -3.74932605533281       -2.73979914107009       -1.98585602286299
H           -7.01239806216057        0.48071870308602        0.60957364353999
H           -6.71853986372214        1.48245832640312       -0.83118750523628
H           -6.35118649242060        2.12833381833947        0.79116120119045
H           -1.27703399655438        0.09783235507594        2.67798499500452
H            0.38527057492251        0.68111307248043        2.87887582399067
H            0.08796612687857       -0.95410249403695        2.25937001660949
H           -0.16348731204042        2.69427638262770        1.45596600359475
H           -1.81691890814110        2.12131834484034        1.16547084810787
H           -0.75121922252984        2.48205746077875       -0.20431735960370
H            2.01689618179775        0.19018454874670       -1.60213389329862
H            5.04260794229490        2.08107078135462       -0.81151468096650
H            4.28429942671567        2.61967660270966        0.70398200929138
H            3.50284290632045        2.96194549422268       -0.85267662504246
H            6.21813710257056       -1.87400759381134       -0.12801009821680
H            5.14552422702256       -2.92268744929134       -1.07648393717366
H            4.86567438920512       -2.67984568070006        0.66392825907776
H            0.23200590222620       -1.40769724107137       -0.63144007547083
