42
 energy: -82.936612485301 gnorm: 0.000616676115 xtb: 6.5.1 (579679a)
C           -4.40626183062009        3.31076118831989       -0.27176997575530
O           -4.07226450251922        1.93719298957490        0.00416583720908
C           -2.77588173946478        1.63608605524722       -0.01325844370122
O           -1.90273982945433        2.43019738641845       -0.24285757034511
C           -2.50841312782283        0.18171148383994        0.29128653325072
C           -3.50229949590536       -0.83297889115819        0.31567039372293
O           -4.78134571488735       -0.61174260176722        0.33618437289586
C           -3.08144838237674       -2.27430257685099        0.32662948225131
O           -3.88397750772133       -3.16874437877452        0.08233493270240
N           -1.81175777465953       -2.46147588518811        0.70180178489119
C           -0.87753083302690       -1.42370857420675        0.83217024531173
C           -0.48437890841052       -1.33619854017183        2.32895063274106
C            0.38964149197730       -1.78338101361903       -0.03826857700877
C            1.01089693200139       -3.09583597808219        0.43094817594911
C           -0.03799034981776       -1.87087642699731       -1.50729064252701
N            1.31183925433220       -0.66643506356894        0.12887480756314
C            2.58492288406546       -0.66060118096671       -0.32688972759216
O            3.18975357450867       -1.61752910061640       -0.77327291589360
C            3.17852567614131        0.69476583284407       -0.18938065383253
N            2.57033578440543        1.75827616536017        0.24336094691758
N            3.47474212215264        2.77519962481525        0.19509650774562
C            4.57796266871885        2.26768618977199       -0.26635041810624
C            5.85954740303491        2.96603363582850       -0.50815901177327
O            4.45375713970433        0.95859183555017       -0.52902512874823
N           -1.25210844720781       -0.10845426247998        0.46637947528139
H           -4.06653920406648        3.57488660532102       -1.27478516152800
H           -3.92515915001512        3.95819330655987        0.46338921929161
H           -5.48773677885326        3.38596156357479       -0.20023035385804
H           -5.03706641896615        0.32933243249573        0.39292869425140
H           -1.32995887170567       -0.93060280820193        2.87931767010176
H           -0.26337988540895       -2.33487701136140        2.69568706375674
H            0.37979143646355       -0.68871945563872        2.45184468248646
H            0.22826174283620       -3.84404281855597        0.54898726656397
H            1.53028998768308       -2.96507770664352        1.37806336600778
H            1.72752067474234       -3.45000726095882       -0.30825984802358
H           -0.75211111130903       -2.68250063363985       -1.63730093862316
H           -0.49560843416024       -0.93537004913657       -1.82444758829160
H            0.83887031088183       -2.06376827891531       -2.12430261783053
H            0.88308484095494        0.23347231072724        0.31545430911699
H            6.66291258529070        2.47183857525304        0.03817297677194
H            5.77761323052837        4.00079935967905       -0.18392998420803
H            6.10568855795714        2.93624195632079       -1.57003481913560
