42
 energy: -82.981190872834 gnorm: 0.000893612450 xtb: 6.5.1 (579679a)
C           -5.69527338630576        2.74436160577886        1.26035891464709
O           -4.49648408542629        2.24351092733535        0.66745178185927
C           -3.79538634301640        1.36041288913139        1.40241802359685
O           -4.15028253598271        0.99516466425318        2.50555486115186
C           -2.59003119281302        0.91212783409793        0.72274994818518
C           -2.14064066406139        1.27597685951215       -0.53475089659697
O           -2.46013001199111        1.94364227567069       -1.47950366917219
C           -0.65639958985057       -0.40549240418296       -1.84742694866951
C           -1.93757578589306       -1.03126370620287       -2.24874758523993
O            0.40524975310879       -0.50029191471196       -2.37751412424430
N           -0.75048928068814        0.46523193069403       -0.65334830147226
C           -0.72948121955587       -0.27387717074237        0.63823930001667
C            0.33809874204462       -1.27523151853844        0.97622616354539
C           -0.06776997916705       -2.65360621223067        0.42494206428927
C            0.48421732726766       -1.32499209114457        2.50394063421214
N            1.60095042443782       -0.84655850613057        0.37148721850875
C            2.74429146212617       -1.55961012508263        0.46736671085864
O            2.85812983262603       -2.64698751471870        1.00682327636014
C            3.89447298834742       -0.87079804100999       -0.16885777453523
N            5.11173666039316       -1.30299703821732       -0.28093163764844
N            5.81890710177529       -0.32723450177420       -0.91641078057214
C            4.99033687632956        0.64202191746675       -1.15228105479043
C            5.27176532049327        1.93217947449728       -1.81804486208986
O            3.75470986600584        0.36135249764945       -0.70581758109070
N           -1.74240062983591        0.00246628221406        1.34654894798837
H           -6.12822762716109        3.44319294659474        0.54671671219606
H           -5.46884328354198        3.25673920284723        2.19938364105807
H           -6.39265187643766        1.92533462536909        1.45645381549132
H           -2.50590717964480       -1.35768904302401       -1.38058297898625
H           -2.52415270182891       -0.27328191003340       -2.77328023479636
H           -1.74543227806064       -1.86166776665309       -2.92357010543363
H            0.00411012342786        1.14498133602823       -0.70787276103258
H           -1.07170436811130       -2.89717979478487        0.76818291631926
H           -0.05487877128255       -2.64137170287706       -0.66279728482372
H            0.62446813371811       -3.41581821480529        0.77819750741021
H           -0.47598775259495       -1.57940872230800        2.94998582303668
H            0.80407373573205       -0.35357443802190        2.87662890687045
H            1.22050830301652       -2.07721472666243        2.78051686809355
H            1.64766873766399        0.05896328972107       -0.06233307985269
H            4.94840768563369        2.75557002878934       -1.18248184827145
H            6.33738611382788        2.01707070737093       -2.01725116375139
H            4.72063835525921        1.99584576883179       -2.75636836263566
