43
 energy: -83.883182588520 gnorm: 0.000923841869 xtb: 6.5.1 (579679a)
C           -4.28989682604563        3.41429078574401        1.20477961506418
O           -3.85064532222255        2.22740994033295        0.54595460050894
C           -2.62161638039666        1.78711338751597        0.87481952039345
O           -1.92913873948032        2.38664933326250        1.67256165301623
C           -2.21814760635208        0.52467578826894        0.18731467606921
C           -2.73129760530287        0.13194537193709       -1.05655679431736
O           -3.70888257488693        0.85799996608776       -1.75185772784049
C           -2.09595722304635       -0.92619994840746       -1.76747829387570
O           -2.35438573335125       -1.32113483937458       -2.91481185557583
N           -0.99092255617433       -1.48813974418906       -1.09816699793802
C           -0.95292311572917       -1.46124456349651        0.36033007018040
C           -1.93227724113154       -2.50886448197619        0.93307956639271
C            0.52410002750235       -1.71876243850587        0.80777875377620
C            0.67756640918080       -1.50506696508512        2.31794287030937
C            1.05069778280065       -3.10358033663617        0.41628618695268
N            1.29202171302460       -0.69410208184692        0.09036683104752
C            2.60913673346105       -0.49429041493382        0.17576800773372
O            3.39157618565107       -1.09289447539664        0.90220269648066
C            3.03918168110809        0.60115724767052       -0.74436074150731
N            2.27096404856979        1.27877711874154       -1.54153997377650
N            3.06904431730812        2.17818918603699       -2.18883632821717
C            4.27173754576190        1.98976382809797       -1.74332854110678
C            5.50298322891872        2.71283694054412       -2.13109565253956
O            4.32037551754632        1.00836307271451       -0.82897897319653
N           -1.30965639330181       -0.15510584676573        0.86868319806591
H           -4.37794770938382        3.23858998686920        2.27995661426161
H           -5.26285992561987        3.66758511868865        0.78995131807990
H           -3.58356659512162        4.23114198446425        1.03285900343675
H           -4.44843027121824        1.07462383516153       -1.17236077763735
H           -0.73458039173191       -2.38404314613954       -1.48916570053017
H           -2.94380610732523       -2.25477944448801        0.61781684982372
H           -1.89733553686474       -2.50414479633912        2.02029407927961
H           -1.69511170124465       -3.50562126330330        0.56771505332025
H            0.25084193876414       -0.54217655370124        2.60109618569988
H            1.72879326793829       -1.52996809803642        2.60031788468884
H            0.15920204455945       -2.29498970234674        2.85818564555234
H            2.09571668542639       -3.19677471617664        0.71012317687336
H            0.97999126086471       -3.25956797515488       -0.65875110469271
H            0.48249497252311       -3.87957340232342        0.92473077215159
H            0.76836841802772       -0.16247787033216       -0.59967972853626
H            6.23503576310739        2.01322845194777       -2.53379708386699
H            5.94377147971139        3.19587415617945       -1.25891389986552
H            5.26578453418655        3.46328760469512       -2.88123065414041
