20
 energy: -38.336832414595 gnorm: 0.000971647931 xtb: 6.5.1 (579679a)
C           -1.99931762643177        1.12058952622964        0.46771010571017
O           -1.78035809630083        0.89080017787615       -0.89760533765840
C           -1.10940274636756       -0.38236590089120       -1.32262056833345
C           -1.96635353495983       -1.57600224919829       -0.77466650695354
O           -0.89818815399047       -0.40699006055170       -2.59144368220373
C            0.25077872226272       -0.44291423944518       -0.52010301321947
N            0.85798830187880       -1.53105907222554       -0.15615486033529
N            2.10384340876137       -1.16195068334158        0.31478418681100
C            2.16673597372713        0.12173142828187        0.19547833529285
C            3.29257627374287        1.00628860665058        0.58311149998155
O            1.03986458281061        0.64110701094574       -0.32770638732469
H           -1.13634121484986        0.83243594997087        1.08627194331505
H           -2.16766409819233        2.19484722552168        0.60186813256404
H           -2.88441945509093        0.58756708357751        0.84665851428703
H           -2.02968220355824       -1.57175031602552        0.31112178324325
H           -2.96467135708725       -1.51302326658135       -1.20304363589589
H           -1.49433096056869       -2.50174649766896       -1.10026075962741
H            3.58801726151000        1.63736927887560       -0.25345490727403
H            4.13779452925274        0.40024383697339        0.89778506609126
H            2.99313139345149        1.65482016102641        1.40592309152969
