46
 energy: -87.046011156924 gnorm: 0.000853744040 xtb: 6.5.1 (579679a)
C           -5.27954018447784        0.47106013964946        1.40184489812490
O           -5.08859933076427        0.93412049875963        0.09123101109421
C           -3.76322982615942        1.65042204923531       -0.10729143103064
C           -3.98772657780583        2.38988718163029       -1.47244878842050
O           -3.42050509197537        2.40705867511045        0.87138004616833
C           -2.73450864915880        0.46242568988957       -0.40073302055902
N           -1.60479697986880        0.48146608691830        0.36611597486937
C           -0.66468831723125       -0.39573928118308        0.24605787388761
C            0.50739979828002       -0.26677573253124        1.21516818947292
C            0.36002506358119        1.03404460831998        2.01844014088516
C            0.53336842454728       -1.46115016128210        2.17883024939517
N            1.74858448088483       -0.18007636301524        0.42882155082364
C            2.98377768619232       -0.15013418676144        0.97080440652882
O            3.25904218198420       -0.32782814266253        2.14392009408731
C            4.00437357732837        0.12024067275760       -0.07798940558354
N            3.76212027265655        0.37496744832755       -1.32870455863702
N            4.96871925454755        0.57412085023816       -1.93024847208651
C            5.86979683939179        0.42927339663811       -1.00680858545061
C            7.33695375350323        0.55046743663620       -1.15173404197323
O            5.32367314203746        0.14432276808351        0.18444986611093
N           -0.73483391737527       -1.40916364820168       -0.67870014592319
C            0.26800026413268       -2.45320604868754       -0.87473853912184
C           -1.84423592825836       -1.53025516813887       -1.50486769698014
O           -1.92908838171184       -2.44532770524260       -2.33337668733062
C           -2.86561317258509       -0.52853896359333       -1.33111926169857
O           -3.94255776438100       -0.66350602545979       -2.15559021646110
H           -6.33738027832970        0.21632889488439        1.52534812223478
H           -4.68069978415204       -0.43203885155234        1.61349165202428
H           -5.01665003424238        1.23741635799089        2.14932300121326
H           -4.39386773325696        1.72453081542502       -2.23052760491918
H           -4.68464397023301        3.20843960836705       -1.29746502384887
H           -3.03661415280703        2.79762116928060       -1.81073021453473
H           -0.56803634423201        1.01099195998402        2.58778261902513
H            1.19923307050702        1.13673522396706        2.70354503455311
H            0.33896020778547        1.89029990864371        1.34570423949996
H           -0.46228246448139       -1.59665815968324        2.59962478892423
H            1.23346011393047       -1.27651007597060        2.99110322682281
H            0.82797136279418       -2.37676175303673        1.67343614865734
H            1.66978809405746        0.10245969054458       -0.53777748110535
H            7.82656681955243       -0.33630929773512       -0.75133190044285
H            7.59147828021965        0.66845394249583       -2.20183839402948
H            7.69677883711815        1.41505612302717       -0.59359240861648
H           -0.06173597143307       -3.36953792249196       -0.38386374066236
H            0.35491940198960       -2.64136392535906       -1.94538010136373
H            1.23148460393827       -2.14782809307739       -0.48380263492730
H           -3.79463867603525       -1.44350369113725       -2.71576377869713
