42
 energy: -83.000719809947 gnorm: 0.000445468606 xtb: 6.5.1 (579679a)
C           -3.55324934649320        1.70992073693825       -1.14300716710778
O           -4.32549528533950        0.85902306850484       -0.29807367214404
C           -3.88124603220487       -0.22795475988874        0.31072562476993
O           -4.80641652313286       -0.84840636404651        1.01410870642248
C           -6.13916703992623       -0.33428221238843        1.03031458276769
C           -2.58896119832535       -0.75901946307068        0.27273048584825
N           -1.63105880609583       -0.06142554649320       -0.46028157945399
C           -0.43456185916154       -0.50245179085490       -0.54389260452233
C            0.61632909181554        0.21964255784544       -1.36116490662810
C            0.22052857592091        1.67653198578034       -1.60929283531184
C            0.81701768389703       -0.52493523681105       -2.68474699584037
N            1.88329590912153        0.17141775644033       -0.62726191021265
C            1.97863808744877        0.62512976333609        0.64272213553943
O            1.03287928332822        0.98616047259012        1.32267450382123
C            3.36856842189563        0.59940093118179        1.15905475154820
N            3.78373606298207        0.91995432987503        2.34463310236073
N            5.13168699818918        0.71951481217259        2.35705055162653
C            5.45621682325356        0.28854374459834        1.17794846419110
C            6.80081142024979       -0.07366477905492        0.68059832947921
O            4.38688230622527        0.18908153413417        0.37189800733318
N           -0.02817162937980       -1.67960672741300        0.04240950456175
C           -0.83494179065829       -2.47429440640935        0.80921068579708
O           -0.41369130274941       -3.50182993014831        1.30972532474780
C           -2.26478645673735       -1.98038037317922        0.97373336528297
O           -3.04163623770761       -2.63202284056364        1.66348625402717
H           -2.74144986208164        2.17601932378241       -0.58243243950118
H           -4.24516826895442        2.47116511717024       -1.50349093631692
H           -3.14226389007793        1.14972832310928       -1.98384281647636
H           -6.15223304822960        0.67586700881038        1.44444090591123
H           -6.71594647010943       -1.00872132396333        1.66089583428702
H           -6.54975841635928       -0.31766858510616        0.01897138664411
H           -0.67265089814871        1.70995282268327       -2.22978684846829
H            1.02917311548382        2.19268509776038       -2.12244077429644
H            0.01609398064088        2.17750384430764       -0.66369009824474
H            1.57848856871793       -0.02496095274955       -3.27989673616894
H           -0.11717321173912       -0.53585400874094       -3.24375839406866
H            1.13060761977098       -1.55055739650877       -2.49758615275569
H            2.72304175333357       -0.00394187756047       -1.15116629671715
H            7.08543335933000        0.59185062509315       -0.13417518110955
H            7.52606610992179        0.00719932475499        1.48667651990890
H            6.79093493262638       -1.09192337803742        0.29320684188466
H            0.92359746945415       -1.98238922788341       -0.09653652342492
