42
 energy: -83.631967934361 gnorm: 0.000731032046 xtb: 6.5.1 (579679a)
C           -6.24370364709250        0.17713300586084        0.96249912882034
O           -4.91284028549710        0.07460760552636        0.46813702025697
C           -4.71934777769836        0.47883056666158       -0.79787197188365
O           -5.64386826946118        0.91026820631718       -1.47689508899009
C           -3.33261834692430        0.35599232901188       -1.26217050675815
N           -2.41878059819008       -0.14414315818332       -0.38107663584633
C           -1.16721354408713       -0.22997223923911       -0.79560928882308
C           -0.14592995914140       -0.82626941083365        0.18413199717514
C           -0.10286706642533       -2.33876708714388       -0.12439307088245
C           -0.64490026790111       -0.60596535840642        1.62262136202206
N            1.11684301245729       -0.10964113056998       -0.02123931267397
C            2.43851101426912       -0.82596205434245        0.25259256091332
C            2.62460884380770       -0.94669196297055        1.80058003780378
O            2.64773311778658       -1.92901358911764       -0.41217680252497
C            3.45260548396752        0.29094041267143       -0.20985720655944
N            3.38656076546072        0.99391408817368       -1.29713012682502
N            4.55505760307952        1.72890670960069       -1.37994869046039
C            5.25046009687780        1.41464992585106       -0.34103155941713
C            6.58635130430302        1.93436496817309        0.04185820799361
O            4.62183027676810        0.51394448102045        0.44058208324960
N           -0.71642701309484        0.10256330729450       -2.00108905142445
C           -1.55714479114078        0.59800834474151       -2.94607126289690
O           -1.16383844867850        0.91494604979704       -4.08563356150646
C           -2.96148233052473        0.73807666690460       -2.53391951543958
O           -3.82858323835991        1.24642109766129       -3.44665009313237
H           -6.58178605207847        1.21649496765264        0.93637179795877
H           -6.23033947268480       -0.18477623369561        1.98888757793263
H           -6.92255239873810       -0.43173516578597        0.35962024498661
H            0.53651950315411       -2.86775113583434        0.58061639273397
H           -1.11363927875705       -2.74436047341271       -0.05081940549183
H            0.27512710287804       -2.50912990534628       -1.13266160236131
H           -1.68062797942189       -0.93355986908276        1.71506103430187
H           -0.59058549509491        0.45438026197752        1.87223924206457
H           -0.04603070137497       -1.16437812166125        2.33921952422347
H            1.15509830637028        0.12491398106826       -1.02336197295844
H            2.01714124041433       -1.76717373067221        2.17643735036733
H            3.66831969707420       -1.17776012766711        2.00859018634678
H            2.35243102507201       -0.02115013183868        2.30576548982928
H            6.53574827973496        2.42637640360396        1.01275821856437
H            7.30502660657168        1.11862988499101        0.11526405607077
H            6.92671405291328        2.64763837183577       -0.70479056613105
H           -4.72758237059193        1.29619824939491       -3.06750922060382
