46
 energy: -87.024381206755 gnorm: 0.000445965459 xtb: 6.5.1 (579679a)
C           -5.62750182163545        2.18163103312656        1.42685484323124
O           -4.87717429394221        1.64580033322128        0.34894881237842
C           -3.79563131337174        0.82257599233267        0.68747104837981
O           -4.05281094134624       -0.08263476158952        1.71145576773313
C           -3.36157510906160        0.13471721093104        2.93749294747620
C           -2.62867582618972        0.83724113286494       -0.02465161134766
N           -1.66675937443029       -0.11088946419109        0.35549017619263
C           -0.57854228064621       -0.26249168423971       -0.31849964045466
C            0.34787754437577       -1.36640161430979        0.20292184115787
C            0.09880023766795       -2.66140025961724       -0.57908237611138
C            0.06235951914614       -1.62392712375912        1.69034321690742
N            1.76038003246705       -1.00594965548056        0.06363418109380
C            2.28066969091492        0.11827735072417        0.61041407525732
O            1.63013205690714        0.98708531582887        1.17914531049028
C            3.74173915280398        0.22633554695492        0.42169164336223
N            4.52059217265380        1.20403059545448        0.79030392139354
N            5.78385849831848        0.87114701560657        0.39266658393758
C            5.70212819547096       -0.28146167612465       -0.19151879933987
C            6.79840304297540       -1.07202360346849       -0.79395110907617
O            4.44044353252760       -0.74930070782342       -0.21212432936176
N           -0.29403171885528        0.44284067281090       -1.44668408000842
C            0.87121131041577        0.23054940414654       -2.29203079183129
C           -1.12738986184713        1.56394474970317       -1.84816049502317
O           -0.72242803407979        2.26187868033020       -2.81131043021365
C           -2.29181961896123        1.71130201201500       -1.11094650880202
O           -3.11958919792720        2.79504300558080       -1.44738468575732
H           -6.08455394328147        1.38480584114026        2.02446337772935
H           -6.41731755613724        2.79530390924807        0.99137067110426
H           -5.00451200347159        2.80628121407663        2.08011458496800
H           -3.68940987083678       -0.64346223492647        3.62875692175695
H           -2.27696377969327        0.05731145577241        2.79331990430138
H           -3.59689721795116        1.11724466049611        3.36381941274486
H            0.71222665012582       -3.46466937501631       -0.17463615480215
H            0.33388586986089       -2.54432015228273       -1.63490391058211
H           -0.94984012019881       -2.94077964026647       -0.48443801173652
H            0.76033406105676       -2.36676049052478        2.07250577878151
H           -0.95395835654427       -1.99479505242713        1.80906343145902
H            0.16953310793602       -0.70327456587365        2.26278173403629
H            2.39030252166599       -1.71198352637133       -0.27316502829300
H            6.60236566283597       -1.23642837133994       -1.85330216223297
H            6.86462974096789       -2.04601694432735       -0.30995411173923
H            7.74019395707926       -0.54183902317737       -0.67576616318471
H            1.70815189523744        0.85973893793197       -1.97489389588440
H            0.60694119760487        0.49845437339082       -3.31771489162158
H            1.18223335844298       -0.80912743404369       -2.27515175405250
H           -3.99201076905376        2.66639391750909       -1.04502824439420
