46
 energy: -87.062305609391 gnorm: 0.000425692180 xtb: 6.5.1 (579679a)
C           -6.82226450604213       -2.05886898950209       -0.64803582904281
O           -5.80642439238314       -1.05788286680094       -0.57153072732229
C           -4.63079720777792       -1.44479061460340       -0.06651756481945
O           -4.41540538938577       -2.58103697054376        0.29818072329123
C           -3.63133214458951       -0.34717300346614        0.01588697854190
N           -2.44911575198243       -0.71540166297589        0.59406548029546
C           -1.48321129412733        0.12622661209835        0.78442867846882
C           -0.24347836621801       -0.42749017199129        1.48268517078326
C           -0.34957703669492       -0.06942159673306        2.97597450696338
C           -0.22432711137546       -1.95890124117209        1.32410540033794
N            0.94321830469249        0.15718487373188        0.86835180414112
C            2.23840910261629       -0.25805996547909        1.27708335054017
O            2.44597322114859       -0.75093771626002        2.39887704811117
C            3.19894469999193        0.02488831964880        0.28141547186727
N            2.92686848584290        0.51882020731649       -0.92270586206202
N            4.00808135835677        0.67024400034806       -1.62209911172557
C            5.14036713795904        0.23063342402548       -0.78958052192870
C            6.09919360028441        1.40913457483331       -0.55381251361207
C            5.86442144073728       -0.93870843511576       -1.47492415289704
O            4.57209431568703       -0.19497858136147        0.44157828358399
N           -1.60372419631188        1.44823156031869        0.42527725340632
C           -0.59051147647500        2.48129748028477        0.65778101140458
C           -2.73531073320620        1.91020350256783       -0.21948907981663
O           -2.84993011269941        3.07950772398560       -0.59011935980984
C           -3.79784511197569        0.94251724212003       -0.41479281493352
O           -4.90115971262809        1.41412233109279       -1.01941412320649
H           -6.98411083141930       -2.50888111245766        0.33472385112796
H           -7.72815220752706       -1.56100126237010       -0.98733693167067
H           -6.53225027223952       -2.83813440498265       -1.35730033682507
H           -0.25624075137520        1.00383777228188        3.12899342904823
H            0.43554572164631       -0.57121235000963        3.53846476136744
H           -1.31807478900410       -0.39401591412383        3.35496191463511
H           -1.11705412495436       -2.39340702645537        1.77070522916541
H           -0.19388023621384       -2.22514844353955        0.26818757255349
H            0.65443948912164       -2.36485324440929        1.82254742251698
H            0.87061554124536        0.22542051403288       -0.14193596571675
H            5.55972477091279        2.22191360883118       -0.07037219576452
H            6.49137309658241        1.75948910913666       -1.50628919591438
H            6.92455406845161        1.10039006651377        0.08540472032401
H            6.24836124764231       -0.61639595943879       -2.44051910091238
H            6.68974496943758       -1.28525412815879       -0.85545082114921
H            5.16339021465054       -1.75796818839149       -1.62604137444921
H            0.07024514410948        2.19660303765657        1.46899638904239
H           -0.01098862290468        2.63236357122809       -0.25354327038478
H           -1.10744526991715        3.40712994906409        0.90958933377027
H           -4.76295128169084        2.35976336922164       -1.21506793132280
