42
 energy: -82.952351980322 gnorm: 0.000511100162 xtb: 6.5.1 (579679a)
C           -6.57433495287919        1.22211875801661       -0.16014713733093
O           -5.42706487984466        0.38835790233485       -0.00994191811667
C           -4.24798509921583        0.93603499044827       -0.34907581087057
O           -4.15867718943302        2.08181955544959       -0.75287769635618
C           -3.10292095493400        0.03806035345031       -0.16535355947383
C           -3.20241235277705       -1.32397887416698        0.17982569540594
O           -4.21126530672443       -1.99258860678680        0.41593074885245
C           -1.87228387712980       -2.07229852122985        0.18256117257528
O           -1.65857297638949       -3.23559297638796        0.07700562611108
N           -0.68015493891829       -1.18229127260772        0.45612682548740
C           -0.70277869363877       -0.96638744298632        1.93467328607801
C           -0.76760208380912        0.10677176377683       -0.28577552969646
C            0.50191316701472        0.65781757136103       -0.89477536343618
C            0.52176261863805        2.18499461828886       -0.76060667953451
C            0.50311511435987        0.26197813943716       -2.38040267710645
N            1.69435515321411        0.04787349696515       -0.30175461027876
C            2.22675128766982        0.40715457830726        0.89103006719194
O            1.66985317802139        1.09864522709324        1.72820905638149
C            3.56783265302478       -0.17670019074936        1.11653397304381
N            4.33705935250871       -0.02688697942869        2.14987464998899
N            5.46588178645640       -0.74729108661746        1.90764339392550
C            5.31851721898813       -1.29398623481356        0.74019318498796
C            6.26510971598359       -2.17253429209214        0.02043680337048
O            4.13900457332806       -0.97139725608171        0.18533185908320
N           -1.89458647266264        0.61629619716019       -0.52063896692724
H           -6.47184321535337        2.12412093371973        0.44955650617594
H           -7.43203927346103        0.64021204397036        0.17371884354666
H           -6.70088637778610        1.51111546110977       -1.20719519946699
H            0.17041870545342       -1.68397932874783        0.20542473559980
H           -0.60739503115618       -1.93699440456637        2.41460076557124
H            0.12996004777382       -0.32212361893857        2.19986491488620
H           -1.64419137697436       -0.49340465026431        2.20557346859500
H            1.44072023493075        2.57781968581395       -1.19034382189417
H            0.45436078378016        2.48399044561369        0.28348999489010
H           -0.33274344197102        2.59327884841670       -1.29912309464351
H           -0.38525600978090        0.66449823462159       -2.86511027507588
H            0.50041298560921       -0.82185233176352       -2.48019842307651
H            1.38949081178367        0.66259222105998       -2.86821728761921
H            2.28572093871966       -0.47581066252488       -0.92675646216570
H            5.75995185337271       -3.08801168262954       -0.28514437381995
H            7.10789303371842       -2.41236000183317        0.66439024546833
H            6.62491229049842       -1.67160261118564       -0.87855993033358
