20
 energy: -37.575200629884 gnorm: 0.000903237296 xtb: 6.5.1 (579679a)
C            3.83647704317570       -0.47028124841565       -0.25124579149355
O            2.40458990083480       -0.30017950647782       -0.19765746476711
C            1.85931654953693       -0.10448457161123        0.96548634331881
O            2.38461048334641       -0.04640708931571        2.03698842750618
C            0.33956520102036        0.05627539590021        0.81794867496558
N           -0.52026706768897        0.26970024944974        1.86959433496620
N           -1.68267966644104        0.35002171471191        1.39056758235914
C           -1.65088693210220        0.19077559577629       -0.01698083515001
C           -2.15411613993798        1.45484850708403       -0.73239556835953
C           -2.43174007159634       -1.06207178093635       -0.44765635140138
O           -0.26705430246092        0.00481557202935       -0.28909264361574
H            4.31948430793894        0.45887462874001        0.05442317974162
H            4.06830390832172       -0.70909357510833       -1.28591841557360
H            4.13101815078788       -1.27990068461063        0.41731668865110
H           -1.56043030128046        2.30770981830265       -0.41083459924340
H           -3.19933361932643        1.60647183165288       -0.47408709378441
H           -2.04818611992482        1.31060910775054       -1.80499989531672
H           -2.02103500437882       -1.93113122460627        0.06190167238819
H           -2.33091926564423       -1.17900085088318       -1.52397631962008
H           -3.47671805418057       -0.92754988943246       -0.17938592557123
