42
 energy: -82.956750636412 gnorm: 0.000432240281 xtb: 6.5.1 (579679a)
C            5.27897111977307       -2.70664244738133        1.84326627308695
C            5.22889869914889       -1.61549412654524        0.84622208201696
N            6.22583966068021       -0.99933566039660        0.29195884968170
N            5.69355091268888       -0.08037129670726       -0.56235819425109
C            4.40466688363041       -0.19166002380457       -0.47686699872817
C            3.37757173455263        0.59354014385350       -1.20819133675086
O            3.68197055149721        1.44982600895098       -2.02190760801223
N            2.11933569936413        0.23880445116592       -0.87378791081780
C            0.92853823087036        0.92488800287782       -1.39249133482720
C            0.94426309107463        2.39365695161373       -0.95843292969110
C            0.87736142877546        0.79806675559327       -2.92269162537702
C           -0.28363973861099        0.22778475151103       -0.81130435453542
N           -1.25056742968489        0.91048501656922       -0.33337387801743
C           -2.38494100388214        0.27014379105324        0.16700035861365
C           -3.33130240211170        1.19941894113835        0.60064130830585
O           -3.39828254412793        2.38989888092164        0.63848846509934
O           -4.66760945754846        0.48540975197513        1.12962778349041
C           -5.82286257057447        1.29646149895816        0.83649517288543
C           -4.56211266043343        0.12262983419964        2.52403580277245
C           -2.50598763576939       -1.15777344758160        0.19219626189407
O           -3.44622480519994       -1.79040975258363        0.67380601948460
C           -1.34817399478731       -1.92143589373587       -0.42995657258064
O           -1.31622739793097       -3.13429443749833       -0.53209398526873
N           -0.30980758424523       -1.15033548779079       -0.88285911315147
O            4.04776537436635       -1.15145637986493        0.40457398326293
H            4.84236934560608       -3.61298208537416        1.42331673390475
H            4.70054300414955       -2.43218802429209        2.72476418585855
H            6.31158056477871       -2.89806764682852        2.12566638428632
H            1.99555002740384       -0.42128985734904       -0.12416632754943
H            1.00718470848267        2.45762797688630        0.12674883538851
H            1.79584518547990        2.90742009205532       -1.40032886384375
H            0.02455830507058        2.87580972795454       -1.28634544260518
H           -0.05460233057542        1.22750682188974       -3.28711363017161
H            1.71345846602548        1.32844376841484       -3.37464405199455
H            0.92216358041006       -0.25036324090694       -3.21215894382600
H           -5.84502816578533        1.44095935268495       -0.24175449740023
H           -6.69984310838306        0.74518957293069        1.16792337229917
H           -5.75138905534088        2.25487625364887        1.35349470511995
H           -3.66660171738296       -0.48503546912137        2.63120699930088
H           -4.50544902079033        1.02030209324838        3.14124129507245
H           -5.44426707301326       -0.46398173699857        2.77334782015663
H            0.47293312235495       -1.64371542533151       -1.28319509256222
