42
 energy: -83.008863123095 gnorm: 0.000394850234 xtb: 6.5.1 (579679a)
C           -2.52322060497674       -2.34082335202575       -1.72991552020305
O           -2.51438594046496       -1.53643959608398       -0.53986303486651
C           -3.39680167353943       -0.57242279695611       -0.40567538122069
O           -4.31520127090465       -0.33905383856323       -1.14299087225183
C           -3.08432367382940        0.28676547570321        0.85862433994023
C           -4.24380988023474        1.24766099205010        1.11894396083242
N           -1.90246236341517        1.03730445068838        0.48508182007382
C           -0.74775560193284        0.62764883733350        0.80496634506739
C            0.48206456848837        1.41307863339994        0.39637395070644
C            1.00073700754676        2.18081265219188        1.61586086174154
C            0.15290522781861        2.36357182025862       -0.75718536993207
N            1.52360442103854        0.46830483440832       -0.01113972714546
C            1.30540632545208       -0.44909740457794       -0.98143722174100
O            0.21744613037719       -0.67531709848678       -1.48409585070183
C            2.53100067844400       -1.19084727380014       -1.35807075496464
N            2.64612797135391       -2.15698363830075       -2.21548920982001
N            3.95909966476575       -2.51832329164032       -2.22674749658754
C            4.56636472582326       -1.74977400355169       -1.37654985367032
C            6.00191007006805       -1.73939223146747       -1.02302169877858
O            3.71895040751580       -0.88735866627209       -0.79152610374493
N           -0.50184705929522       -0.49153838281423        1.58751989251693
C           -1.46557787039855       -1.21820179939054        2.21667824324459
O           -1.21247057990210       -2.17611796703580        2.91258470181251
C           -2.88979000641109       -0.68971125858145        1.99840058018848
O           -3.80260402201514       -1.06801580408262        2.68720192495707
H           -2.98002657890040       -3.30485979424623       -1.50164952037086
H           -1.48213435347761       -2.47523592970320       -2.02275407350093
H           -3.08178074799723       -1.83967844975779       -2.52225058115424
H           -4.41687476671928        1.85238678748205        0.23123827020488
H           -5.14440430969250        0.68294145924005        1.35419169682024
H           -3.99684073373811        1.89881449576996        1.95430743248404
H            1.89545924219966        2.73843660111485        1.34680554244828
H            1.24345906713292        1.49012065903787        2.42147640836962
H            0.24016401584118        2.87842944482316        1.96291050661941
H            1.05258385929867        2.89171063268826       -1.06524986211447
H           -0.59429616840662        3.08446822577745       -0.42952426697556
H           -0.24437944890589        1.80284983151318       -1.60245206081977
H            2.46745157504907        0.66011476650877        0.27731519574217
H            6.12066649615238       -1.90130544109355        0.04797897600259
H            6.52289477594078       -2.51960235350595       -1.57284114043405
H            6.43516138789939       -0.76901481001789       -1.26512987016407
H            0.45753103695277       -0.75883041803108        1.74709882140560
