16
 energy: -33.394995879998 gnorm: 0.000557150595 xtb: 6.5.1 (579679a)
C            3.90719603087511       -0.34972882695623        0.48012122590598
Cl           2.30978242312864       -0.22172949021013        1.26876586746224
C            1.17630016888326       -0.05275159747393       -0.17261907065926
O            1.65511563282710       -0.01972577643306       -1.24919552556638
C           -0.17199450774376        0.01629290494698        0.29522244028499
N           -0.59695223216702       -0.03341363486792        1.53663489882006
N           -1.92381614673272        0.06757224595859        1.49729287726700
C           -2.26751164704447        0.17556907133830        0.22988429848773
C           -3.62636074218200        0.31541719336973       -0.31942690084693
O           -1.20322429675281        0.14863109035499       -0.56314101035488
H            3.82971112309616        0.05779201721709       -0.52658143312714
H            4.19463533080661       -1.39694739811334        0.44833779240334
H            4.60249303726944        0.23127275430861        1.07868131109239
H           -3.80557314912264       -0.46253670177661       -1.06210048804779
H           -4.35889963480656        0.24448096038506        0.48098060376537
H           -3.72090039033236        1.27980618795556       -0.82109388688647
