42
 energy: -82.992884599857 gnorm: 0.000544393439 xtb: 6.5.1 (579679a)
C           -5.04833909286288        3.00344111195655        0.25698438581042
O           -4.59974896489545        1.64960886316193        0.19472184223534
C           -3.27673431674801        1.46515282332933        0.20083481251508
O           -2.50245391583235        2.40681152305957        0.26707064082216
C           -2.88572929560343        0.05356128974694        0.07393744184033
C           -3.77507311992089       -0.89975063343179       -0.49656996249940
O           -4.95924437871569       -0.71149588025702       -0.77622540808701
C           -3.17021137486176       -2.24394933621825       -0.81374681463792
O           -3.77088167070706       -3.19587818320793       -1.26587534521370
N           -1.80373529281250       -2.34267542216871       -0.59455180771553
C           -1.01118540128765       -1.42816887368015        0.00956756599093
C            0.43975867131904       -1.84315255588144        0.23525222242079
C            0.58215320221523       -2.43378761252722        1.64752522863030
C            0.89613034834745       -2.88875969888711       -0.79579060730985
N            1.27487394874695       -0.65690474931515        0.03566798547724
C            2.59065245837518       -0.59984959560497        0.37731945769415
O            3.18598468448420       -1.40847439349917        1.05902044962493
C            3.20425578966963        0.63191919714313       -0.17481390261486
N            2.60965584741411        1.50794072070943       -0.92884495755062
N            3.52914246918549        2.47002262474141       -1.21208810232828
C            4.62833070411639        2.11968019129822       -0.61353711864035
C            5.92510420912454        2.83076831755939       -0.61151340001893
O            4.48509933011455        0.96706681059942        0.05649229480282
N           -1.55517291904883       -0.28792538393639        0.38129499267517
C           -0.81571643846141        0.64289251242088        1.24710930138100
H           -4.68874773240431        3.47844288793524        1.17297251927476
H           -4.68145124286468        3.56524274510399       -0.60565019030912
H           -6.13660950557738        2.97265359107760        0.25177340247469
H           -1.40879664917616       -3.23261062948645       -0.85673962692531
H           -0.22358196629740       -3.14752243216995        1.81127288167687
H            1.53393756836438       -2.95257205081370        1.73672321018680
H            0.53383041509987       -1.66342455879746        2.41328851638332
H            1.97415007951977       -3.00976820696833       -0.70043645391704
H            0.43280956865839       -3.85540877665418       -0.60872659685719
H            0.66813574373465       -2.55975314181989       -1.80746478660729
H            0.98352588415044       -0.02719776637660       -0.69975536056474
H            6.21277747783001        3.07587224240935        0.41063099381286
H            5.84412392537570        3.74254056456523       -1.19759863040121
H            6.69935357134416        2.19117592697835       -1.03469003132504
H           -0.36469521132759        1.42997919232888        0.64617069293106
H           -0.04598341286989        0.10732283285330        1.78818198923366
H           -1.50969499491494        1.07693391272888        1.96236627562351
