39
 energy: -79.830196392502 gnorm: 0.000524664323 xtb: 6.5.1 (579679a)
C           -6.16819398417987        1.68717642776805        0.41392859433259
O           -4.97393562077680        1.20206840274549       -0.21928564817432
C           -3.98209447881661        0.83551227405340        0.60458999595506
O           -4.06902549521386        0.91087614133853        1.80640263272694
C           -2.77936230505949        0.32313059016031       -0.10983165482117
N           -1.79985152748216       -0.11073411251787        0.75195185992795
C           -0.69829278504313       -0.58166170254219        0.28216455297547
C            0.35592542504890       -1.12172857333849        1.22352973222562
C            0.25754318614889       -2.65521034003018        1.19968411376204
C            0.13594736968337       -0.57048961841373        2.63546616787774
N            1.66464887259105       -0.69027458060617        0.71812535110614
C            2.83020863971077       -1.06395906673850        1.29343287454676
O            2.94673715945208       -1.87228828757067        2.19801051150076
C            4.00669618010796       -0.39127320038075        0.68789503845955
N            5.25473195734349       -0.54981663289222        1.00259822886980
N            5.97345218670953        0.27450032066609        0.19063283798433
C            5.12037238621477        0.88677487300555       -0.57020478315913
C            5.39820935911693        1.89206368296969       -1.61855487416044
O            3.85755221700231        0.51093111127831       -0.30658970797159
N           -0.46671184331844       -0.68309830146193       -1.05882960752608
C           -1.36370680284887       -0.28078229245953       -2.02948907435460
O           -1.10064489421442       -0.39471960486018       -3.21274403495297
C           -2.60906252214449        0.26451849387666       -1.46986283664547
O           -3.49115763550679        0.66611643051169       -2.39028091463492
H           -6.85663707899461        1.95553513497151       -0.38331639855944
H           -5.93487357717675        2.55986741420726        1.02744805137355
H           -6.59804803907600        0.90384331060717        1.04202679495318
H            0.49012249393655       -3.02613130960882        0.20298704994633
H            0.95201295603055       -3.09143040945363        1.91477334143993
H           -0.75651283038719       -2.95318993005626        1.46249953650769
H            0.87283091469701       -0.98959600849344        3.31808642283311
H            0.22748114711272        0.51445402704835        2.62702099900721
H           -0.86339011061513       -0.83748610456508        2.97557067964732
H            1.68605373368345        0.08224249276380        0.07329396974318
H            6.47187426400549        2.03312780283541       -1.71596871966537
H            4.92771806147926        2.83979324876871       -1.35623386633101
H            4.98204684267838        1.56245590011959       -2.57009240573601
H            0.40536079280626       -1.06707775039355       -1.39084064862882
H           -4.30602461470308        1.02595974667952       -1.99882616238286
