17
 energy: -27.463381993084 gnorm: 0.000739426274 xtb: 6.5.1 (579679a)
N            2.52329482732362        0.40011064305645       -0.71514408811360
C            1.80368608516301       -0.11492035756370        0.44954525313082
C            0.31009585872334       -0.06628849216119        0.22896185690952
C           -0.52661614986520       -0.97178240845893        0.87768035483229
C           -1.90324234742497       -0.91461193076587        0.70534079705540
C           -2.41916962486634        0.06209506099978       -0.12657114697061
F           -3.75233801015458        0.12467146092342       -0.30052165277593
C           -1.61997192060283        0.97595842117569       -0.78901288102937
C           -0.24720536830402        0.90394551173796       -0.60183398216953
H            3.49228666243469        0.52652571729281       -0.46156006869564
H            2.49316893998285       -0.29072002921438       -1.45294258550118
H            2.05190633814484        0.52182524877226        1.30696576876742
H            2.11606580541981       -1.14129734187760        0.69454412133474
H           -0.10202683316797       -1.73217404946532        1.52320313205998
H           -2.56224434214587       -1.61289828619098        1.20419537854559
H           -2.06390019885021        1.72423929243288       -1.43300180804551
H            0.40621127818996        1.60532153930666       -1.10985044933450
