47
 energy: -80.230247401824 gnorm: 0.000572517293 xtb: 6.5.1 (579679a)
C           -3.48353890267038       -0.82200619902379        1.34009607240999
N           -2.49646157776480       -0.95939335920457        0.27037424283128
C           -1.87321522046309       -2.16767767348383        0.20322459163249
O           -2.07711411705644       -3.05118055887143        1.04572477308368
C           -0.91290855103898       -2.35356066846859       -0.97314852636111
C           -0.12061450196647       -3.65056937293007       -0.78509316913513
O           -1.75692450551323       -2.48641482068088       -2.14734080162137
C           -0.08726216126298       -1.09159296358809       -1.05464045550719
C            1.27396531438219       -1.04535142109909       -1.42260165735132
O            2.04713577139437       -2.02076650337487       -1.55416963026085
N            1.76405455125271        0.25509804586012       -1.69825291674138
C            3.19705218163835        0.46685705357687       -1.54721614612601
C            3.57428603796672        0.55336541238548       -0.08291984918579
C            3.85647283912189       -0.60325255908012        0.64271646520021
C            4.15551277998428       -0.53618162255309        1.99621912476094
C            4.16302776844940        0.70580599827335        2.60490905396320
F            4.45261102019026        0.78031051153128        3.91955326526129
C            3.88942226523910        1.87477506946621        1.91941624443880
C            3.59139282994965        1.78659162748606        0.56594051279482
N           -0.75307426878969        0.09674983437185       -0.89665603905414
C           -1.92095433930940        0.17624087869257       -0.35934380865420
C           -2.59866552066302        1.53860649683693       -0.32392224687069
C           -1.99632216538842        2.41443139425012       -1.43727173846749
C           -2.36430265619323        2.23909295205447        1.02479716071143
N           -4.04336704543132        1.40656117639620       -0.54086753602186
H           -4.23430077499098       -0.08488807877442        1.06409778286420
H           -3.97133370243855       -1.78685169422119        1.48939975905773
H           -3.00125688885913       -0.52640428558176        2.27562674121954
H           -0.81368291699222       -4.47436083923721       -0.60879512587098
H            0.46259352820323       -3.86857659901423       -1.67683987227871
H            0.55205125872815       -3.56233280264674        0.06670279126775
H           -1.22554247173241       -2.33888545433843       -2.93752139933297
H            1.20856163373885        0.99123206260789       -1.27288409072740
H            3.46281090268833        1.39579009320104       -2.06095950198342
H            3.72244717102217       -0.36464255672412       -2.02928936990606
H            3.84061465083024       -1.56639149334677        0.14323585394404
H            4.38238996432785       -1.42529535037916        2.57041662579421
H            3.90936318825207        2.82754660179833        2.43197582761882
H            3.37562476793927        2.69219980069734        0.01054510934926
H           -2.49401862458277        3.38282138231367       -1.45616316610913
H           -0.93166239642525        2.56511952051499       -1.26134602621496
H           -2.12366968679659        1.93336916853590       -2.40629136057011
H           -2.86347730309847        1.71337793827927        1.83658832782907
H           -2.75201640875611        3.25688413787933        0.98773829481283
H           -1.29630268333128        2.27979126347234        1.23618053599105
H           -4.47456232899892        2.30833953077604       -0.39766005562263
H           -4.21484170480051        1.14561892535628       -1.50402466686949
