42
 energy: -82.972854858304 gnorm: 0.000840353507 xtb: 6.5.1 (579679a)
C            4.27883350895866        2.68826033685576       -2.89771278514623
O            3.00366797884462        2.29308252273695       -2.40615753822797
C            2.15290833883842        1.75984872969043       -3.32898760468933
O            2.48727076719625        1.65478466738373       -4.49600812382527
C            0.87785246194334        1.36347128407235       -2.74321631524692
N            0.75873686015985        1.58523937837725       -1.38809124661207
C           -0.32043251059797        1.27791768023115       -0.77259917260025
C           -0.47661995192607        1.59103335376667        0.69838576740798
C           -1.44814961700666        2.75860306440217        0.89217561935597
C            0.88283376739371        1.89722707535146        1.32852082628532
N           -1.07455940997485        0.42185684618226        1.38023578438078
C           -0.62725414975507       -0.81066719270429        1.31827071813329
O            0.42805061975570       -1.05565535345043        0.59851372836750
C            1.00650660128021       -2.36582518068061        0.48506203494951
C           -1.37840538902421       -1.78780229117626        2.06413698695254
N           -2.43709616835938       -1.50536883129504        2.77940378373959
N           -2.85969460010682       -2.65953682768003        3.32544279875414
C           -2.04329130329775       -3.59513217043277        2.92172893581956
C           -2.09085677214369       -5.03467392769331        3.24065857937726
O           -1.08775293003244       -3.10189662407792        2.12226806603787
N           -1.40238595040913        0.70960994026356       -1.41216383919791
C           -1.41787977128814        0.41429163584404       -2.75615352067905
O           -2.40803678224515       -0.11226025577997       -3.24899929630179
C           -0.16458794482612        0.78609577376915       -3.52202965314837
O           -0.12591152890717        0.56392670156992       -4.74103756446967
H            4.81054886906366        1.83128629453001       -3.32295170440452
H            4.83585170845676        3.08396864230515       -2.04970115994394
H            4.17518984805607        3.46039353810746       -3.66689601677665
H           -1.05039914284360        3.64402929413818        0.39810311257936
H           -1.57391153182104        2.97287799379696        1.95172251813479
H           -2.41790465365818        2.51943829121865        0.45957158077918
H            1.56511835001699        1.06216747589290        1.18436499229300
H            1.30179724049116        2.77730518967877        0.84222697544770
H            0.76697559385157        2.08975837016522        2.39259072541564
H           -1.88547055626055        0.57765390543021        1.96384262407965
H            1.30574917480604       -2.72557768427722        1.46917956930866
H            1.87893100921615       -2.24659658772624       -0.15573205007995
H            0.29182286073399       -3.05616089112926        0.03633923527179
H           -2.35250863896776       -5.60171349428625        2.34635828700236
H           -1.11198753692678       -5.37366671738308        3.57687192509624
H           -2.83437679358936       -5.21617954479580        4.01317708632505
H           -2.21916992509338        0.46458458881463       -0.88071566994323
