16
 energy: -33.440471578040 gnorm: 0.000400153452 xtb: 6.5.1 (579679a)
C           -1.70883303386057       -1.38137962390074       -0.10324388089697
C           -0.44670866245339       -0.63079415803646       -0.04645726250201
O            0.73457780831328       -1.20568502761033       -0.04222729312496
C            1.63860025434480       -0.20986461517830        0.02850057751233
C            3.10157312892840       -0.51733402322170        0.04622764616059
O            3.51969299237711       -1.63183705774383        0.02904501360326
Cl           4.07688005579347        0.87871749178704        0.08959796184823
N            1.05138415911633        0.94954544388530        0.06745846955968
N           -0.26031828581502        0.67564724273456        0.02029716247152
C           -1.23170648111600        1.75047920561623        0.05140728921583
H           -2.16728671654742       -1.39821837874201        0.88861373099639
H           -1.51300277168835       -2.40397715683614       -0.42198443863872
H           -2.40522595065152       -0.89494706992250       -0.78572592733071
H           -1.90464860469783        1.64029510015450       -0.79695894953666
H           -1.79526194447023        1.68857616157134        0.98110076424407
H           -0.68971494757305        2.69077746544305       -0.00565086358184
