21
 energy: -30.830626114932 gnorm: 0.000335740230 xtb: 6.5.1 (579679a)
C           -2.32281516957921       -0.14235877216589        0.89989457529533
N           -2.06437088810882       -0.32434258705630       -0.54806798382121
C           -1.02056320523780        0.60709653217377       -1.08921779683132
C            0.32288376542422        0.29961872295660       -0.48322289855405
C            1.04678029483124       -0.80540152390595       -0.93090037661420
C            2.28540228825858       -1.10174351471346       -0.38317144820354
C            2.77921360839576       -0.27423305797545        0.61109619443879
F            3.97286058791960       -0.55311405930953        1.14194822839440
C            2.08615368170556        0.82962614077858        1.07656354279321
C            0.84679356327541        1.11221363687768        0.52078464646603
H           -2.67355536458337        0.87343197804387        1.06339690626355
H           -3.08241972846952       -0.86101427724655        1.19722228262749
H           -1.39697218354276       -0.31814782634405        1.44226731042846
H           -1.77421641230377       -1.28408102182975       -0.71923454802108
H           -2.92769379465504       -0.16769873472880       -1.05891979333717
H           -1.34932024767715        1.62158468085944       -0.86113186650726
H           -1.01522434379308        0.45586073922521       -2.17024657628871
H            0.63884073090212       -1.43421628563056       -1.71244079267761
H            2.85718030577167       -1.95680283586271       -0.71976987250667
H            2.50557397993637        1.45228546621959        1.85637101150749
H            0.28546753152978        1.97143659963398        0.86678125514802
