21
 energy: -30.735160376903 gnorm: 0.000499718702 xtb: 6.5.1 (579679a)
C            3.87811418803083       -0.01848471449511        0.08211260139257
F            2.68061583486495        0.02940094352858       -0.71835949443956
C            1.27995064083307        0.01274597209288       -0.27564018862517
C            0.69751860807836        1.22731485786535       -0.02080101007181
C           -0.64090880237267        1.18883183575966        0.35344880514406
C           -1.32285957796261       -0.02452427961322        0.46112994176374
C           -2.80038556545762       -0.03901208697618        0.78067962718214
N           -3.56321426955032        0.08416440676218       -0.45854337084580
C           -0.65276441902558       -1.21909722384706        0.19204294514800
C            0.68550554554898       -1.21916479037521       -0.18430926879756
H            4.53869794349561       -0.68241188455986       -0.46814295551649
H            4.23496869545347        1.00606206839830        0.13006751082379
H            3.58281497469895       -0.41547469210257        1.04866307238581
H            1.24319293545133        2.15578518148734       -0.10942666741109
H           -1.15131309007300        2.12032432497245        0.56559872696329
H           -3.07651692779357       -0.97651551343218        1.27006719024058
H           -3.05833906060622        0.79697707751797        1.43564995990391
H           -3.30003903836454        0.94604294236882       -0.91780314484773
H           -3.30617650677388       -0.67586306038762       -1.07433625777513
H           -1.17255823626844       -2.16563032288739        0.27695477453397
H            1.22369512779426       -2.13147104207753       -0.39783379715093
