9
 energy: -15.745914090567 gnorm: 0.000896213421 xtb: 6.5.1 (579679a)
C           -0.95027273398205       -0.58817922969055        0.10673298945687
B            0.44226254226713        0.13015526028483       -0.07447542306875
O            0.61227774147946        1.49002367393468        0.02633472042984
O            1.54985393539553       -0.62725673455085       -0.33367376604397
H           -0.95349408983797       -1.57056739547723       -0.36357035383669
H           -1.16299923813841       -0.72797692631215        1.16681607706662
H           -1.76491872265811       -0.00067229408905       -0.31139031794376
H           -0.14468200945958        2.04128404656062        0.20746011549531
H            2.37197257493402       -0.14681040066030       -0.42423304155548
