42
 energy: -83.612119017650 gnorm: 0.000495101890 xtb: 6.5.1 (579679a)
C           -5.20181137967579        1.27729199904514        1.98792228079706
O           -3.94994086291094        0.84040271715163        1.51085848550748
C           -3.90788881352879        0.56699041775147        0.11703177340568
O           -4.96677269593692        0.72100713494548       -0.52620128949871
C           -2.65820003184166        0.12310718844769       -0.32473106521281
N           -1.65404059267079        0.05925098987898        0.61538269717783
C           -0.52172845796839       -0.48307166544978        0.35523319160454
C            0.58256884577855       -0.52233557309001        1.39150189967309
C            0.73817679349385       -1.94327637347699        1.96147252037805
C            0.25810734802830        0.47188369412577        2.51221823395103
N            1.83872215089481       -0.13585749501696        0.72078087725725
C            3.01621790446722       -0.00258171622891        1.35389503123454
O            3.20126170383393       -0.15400638808719        2.56021627693458
C            4.12854278877381        0.37935686078497        0.45352960952211
N            5.36790209045322        0.61229488881657        0.78744174074215
N            6.03014062314338        0.93812156865323       -0.36127738018396
C            5.16216560819502        0.88541312035007       -1.32212176171281
C            5.39377305058462        1.15142104612722       -2.75980945345786
O            3.93973716993123        0.54029726239137       -0.87991435979648
N           -0.26818773153682       -1.15777714349225       -0.85969827060208
C           -1.25590095584702       -1.27364174678310       -1.80533758022189
O           -1.19669151047186       -2.19293292593557       -2.62929475120902
C           -2.28207692367234       -0.09178922625911       -1.82449011973007
C           -3.51851369219591       -0.59880887726737       -2.63628558024299
O           -1.67093539109423        0.95871137429586       -2.39679676361271
H           -5.52087622271144        2.20794786374948        1.49888127983211
H           -5.98213065072797        0.52127261885306        1.82660419284232
H           -5.10019837320937        1.45747398422559        3.06019395299104
H            1.01232674876290       -2.63861485711472        1.16975555918036
H            1.50945846449372       -1.96711190929154        2.72962701061725
H           -0.20668872367127       -2.26220434749763        2.39965011529090
H            0.27150739405337        1.49049239259686        2.12438303739750
H            0.97277483215645        0.39077651205424        3.32841551790727
H           -0.74102754320400        0.25817500932418        2.89224544249045
H            1.82571965591627       -0.05143557402907       -0.28615872392582
H            4.73843448800998        1.95065611132794       -3.10622759045931
H            5.17797236631490        0.25781238561100       -3.34546450692889
H            6.43045867989468        1.44054176996408       -2.91167986575111
H            0.42858931104723       -1.88319141621265       -0.85431269877233
H           -4.20917466016045        0.22615901272895       -2.80335690590935
H           -4.03636566785020       -1.40642779144765       -2.11740755303729
H           -3.17541113733584       -0.96179289649732       -3.60667450647537
