47
 energy: -79.489282858973 gnorm: 0.000837011798 xtb: 6.5.1 (579679a)
C           -3.61240642240990        0.87603558317187       -1.92212574607636
N           -2.48035149925907        0.77906760055474       -0.99403282716322
C           -2.41119614955483       -0.07763773886849        0.02777529066227
C           -3.55595341541023       -0.72699610429602        0.76411460383986
C           -3.74519718729517       -2.16965078770653        0.27670001178986
C           -4.86812258294848        0.06003099563301        0.73557340218101
N           -3.09199689358434       -0.75472745516325        2.14554045279634
N           -1.19783092129271       -0.44271392708973        0.48740007302546
C           -0.12089788395625        0.24051261873199        0.28845972980729
C            1.17659050751516       -0.44179018282971        0.66469158331595
O            1.21365940524899       -1.65261484431384        0.79659783514295
N            2.21167870077141        0.37698725520747        0.88157103409377
C            3.50471538580423       -0.16328995652809        1.30213499665401
C            4.27100311709183       -0.66830294133425        0.09851638490284
C            4.18975461815423       -2.00958069546182       -0.26748186319068
C            4.87604555481392       -2.47803002894045       -1.37858935042310
C            5.63275538548353       -1.57925328463030       -2.10923075239472
F            6.29910225659139       -2.02485762564979       -3.18460584679222
C            5.72855300760313       -0.23968851588239       -1.77699393868573
C            5.03614559722941        0.21224316872046       -0.66240398598755
C           -0.26626835078894        1.62833308789939       -0.24697957787148
O            0.92150615013649        2.08063394602490       -0.81397408722154
C           -1.38737683126466        1.64004838253404       -1.28464526208775
C           -0.74363369621604        2.57982827941265        0.88441905212242
O           -1.41303522801938        2.38728006076087       -2.21713386132500
H           -4.26770547160754        1.68664260281748       -1.60785402061382
H           -3.21033037540272        1.09953828469274       -2.90959292624592
H           -4.14528882519814       -0.06847996191765       -1.94296427609709
H           -2.79642724744117       -2.70281720438360        0.31413460112180
H           -4.11896791113415       -2.17698538836651       -0.74521781483392
H           -4.46349064081236       -2.66598319534235        0.92726319007037
H           -4.67652594903046        1.12531499911239        0.84616908772165
H           -5.47711587521924       -0.27239060593674        1.57546105241756
H           -5.42450325053868       -0.11567568732959       -0.18134267094399
H           -2.25696123476741       -1.31948190016282        2.24449357226433
H           -2.90312617479720        0.18050003866743        2.47552606747885
H            2.14734911000654        1.36273626937171        0.69147436520466
H            3.31555182077200       -0.97734082256738        2.00775157380347
H            4.04556300030009        0.64011070843309        1.80412132235064
H            3.58225803107960       -2.68996864123165        0.31758136988964
H            4.82447582784964       -3.51761829391986       -1.67526042052619
H            6.32871002279329        0.43236816846280       -2.37637915354773
H            5.09421765201102        1.25687201369612       -0.38248486289740
H            0.77095084668059        2.88138769825603       -1.33803438199580
H           -1.63562582963462        2.18110309497335        1.36091968273419
H            0.05727044244203        2.67087974784709        1.61436345272154
H           -0.95752159281115        3.55742218487654        0.45797183880806
