42
 energy: -82.918751227025 gnorm: 0.000805636773 xtb: 6.5.1 (579679a)
C            4.15050141952867       -1.17391337591819        3.96430116432542
O            4.24457295847839       -0.65205522576841        2.64529490007542
C            3.07350877891863       -0.50569125353235        1.98237484972592
O            2.00844875403193       -0.80769643470037        2.51124217624396
C            3.19585121976255        0.02343343263111        0.63334791808246
N            1.96946829339518        0.14173844648567        0.00536360571583
C            1.87701987386113        0.58656521217141       -1.19159101592637
C            0.51124564277102        0.69299680731297       -1.84378886934274
C            0.17876531899578        2.14705218270903       -2.19901678742931
C            0.41896796457042       -0.21687530596182       -3.07450264007449
N           -0.41945656016880        0.21755564981238       -0.81475616967345
C           -1.73325097241906        0.13383976706857       -0.94883362067196
O           -2.40736333219960        0.42395141507638       -1.92459799354787
C           -2.36535663932696       -0.39262657954452        0.30598536909528
N           -1.81635212146451       -0.74583175517700        1.40399190111629
N           -2.78957248453376       -1.16315638377639        2.27110476157479
C           -3.92646768702271       -1.06279347150334        1.70042105556489
C           -5.26361594602257       -1.38697713136541        2.22096780158671
O           -3.74803470876711       -0.56214061608695        0.40356765345048
C           -4.73399952390533       -0.29868084291389       -0.64380552465537
N            2.98230333104070        0.96965964159402       -1.91459769339020
C            4.26588629263638        0.90738576179121       -1.42046019694635
O            5.20324472285075        1.26422840300136       -2.12516382133728
C            4.41031722196710        0.38465286461118       -0.00495547296085
O            5.54948782898685        0.30879655145828        0.48504569715896
H            3.52378368210809       -0.53122844950145        4.59037663422270
H            3.72026099356997       -2.18016690327293        3.95127885280597
H            5.16229048562367       -1.20957227888039        4.36693044984107
H            0.91348422192793        2.52918533315399       -2.90516231649095
H            0.19253341394876        2.76268492776783       -1.30075341677530
H           -0.80791882909801        2.20365391594000       -2.65433041760956
H           -0.57611897256534       -0.15586983728218       -3.51025946863896
H            0.62124073626867       -1.24885575952153       -2.79123388649001
H            1.14779913882943        0.09910133572329       -3.81829871447285
H            0.03899160354411       -0.06280759781565        0.05951634024451
H           -5.15807722447266       -1.75898701414336        3.23860617412710
H           -5.74046171328153       -2.14819995908495        1.60341224674246
H           -5.89898596504703       -0.50097848553658        2.22169160634135
H           -4.64535069676468        0.75057211467896       -0.91772785196384
H           -5.70733884851239       -0.52456862957877       -0.22043767740239
H           -4.49779774771230       -0.94671611021800       -1.48592897487728
H            2.87554707567227        1.31280363809951       -2.85461362736292
