42
 energy: -82.886942246038 gnorm: 0.000520706798 xtb: 6.5.1 (579679a)
C            6.13140263437436       -0.89030852761404        2.40796938594774
O            5.08846504303311       -0.01743230262977        1.96397389636311
C            4.18846999453565       -0.53954062883100        1.14161073745271
O            4.21375871858378       -1.68885381424264        0.76198371484600
C            3.12157636830277        0.42510683465721        0.72535075842447
N            2.13590539760920       -0.14091256537682        0.02845441342638
C            1.09016252052343        0.55124812990054       -0.36635870571840
C            0.05418454913915       -0.13259991254884       -1.21135636514720
C            0.53830289612161        0.01577484358020       -2.67362318818137
C           -0.04774886741656       -1.62356595710425       -0.83582408819072
N           -1.21721756323382        0.51289910748076       -1.02921549313010
C           -2.43173601776335        0.07536598277323       -1.73936619301449
C           -3.15388262069407        1.41484099900212       -2.18114394668053
O           -2.29189323824917       -0.76316461542522       -2.69334421450768
C           -3.34418043828345       -0.43096934905178       -0.59473631541402
N           -4.09942226541711       -1.47227107300262       -0.60412140149053
N           -4.72571383772257       -1.48886945242555        0.61532839752609
C           -4.31286844551870       -0.45641399145363        1.27376662876699
C           -4.69259192218477       -0.03282414998492        2.63884083940498
O           -3.42603368605864        0.26512389067213        0.55622522244897
N            0.95979069568304        1.86398823337492       -0.08527825020103
C            1.90742273297507        2.61502928323092        0.60361011474604
O            1.73302023509931        3.79714345904613        0.78796962820637
C            3.13358986106588        1.83926338618602        1.05471014199634
O            4.03219383707730        2.42147320852867        1.64215197884432
H            5.70179703661709       -1.76123116675538        2.90815672470778
H            6.72923070265550       -1.22182272675738        1.55604655506118
H            6.74276936442670       -0.31706677494610        3.10168065350187
H           -0.12745691793881       -0.52478602759866       -3.34143348010516
H            1.54430584938231       -0.39007662713723       -2.75987330086564
H            0.54733348332682        1.06883831604583       -2.94504995675683
H            0.94161613631165       -2.07220817531207       -0.90423259015947
H           -0.41967351706906       -1.71824644360297        0.18233424870392
H           -0.72656003015252       -2.12897166505681       -1.51938094782065
H           -1.39174274654205        0.93942639977421       -0.13262953832967
H           -2.52546618632589        1.87913706056016       -2.93511453980325
H           -4.11791848331734        1.14904861021462       -2.60558855427068
H           -3.27607896188585        2.07159860917004       -1.32683578464059
H           -5.14920454159642        0.95620299880001        2.60711281481655
H           -3.80714730549803        0.02555958809428        3.27107932583008
H           -5.39619615114143       -0.74711279489473        3.06013401191105
H            0.14543368719013        2.36791280066510       -0.40398133851069
