42
 energy: -83.632017871587 gnorm: 0.000444662167 xtb: 6.5.1 (579679a)
C            4.44502864648789       -2.30026046627346       -3.32218913085228
O            4.30922819739843       -1.19316506750151       -2.44640986067658
C            3.16610903276668       -1.16049376935392       -1.70632959416855
O            2.33299124090973       -2.05350731770753       -1.82212200669653
C            3.05593205539067       -0.02336337078564       -0.80838130889565
N            1.87286804225025       -0.01845536329135       -0.08805159655893
C            1.62966949589091        0.89597354991788        0.77511124216857
C            0.35939783952802        0.87932667693527        1.61431161567573
C            0.75978785546995        0.52916709044545        3.05863226226135
C           -0.32885650733523        2.25784622329020        1.56946691044158
N           -0.49965518419848       -0.16448085421311        1.06024457439088
C           -1.87068158296513       -0.21807689257333        1.52936511826472
O           -2.13586059168169       -0.00159430011734        2.75782224168307
C           -2.80854817879899       -0.43328262754591        0.55950512021756
O           -2.51534268377549       -0.79451173013587       -0.79169568702510
C           -3.65211708799089       -1.32287606002592       -1.25306598615574
C           -3.69483954318076       -1.79678767521620       -2.66633944739763
N           -4.64298274036877       -1.38501264156986       -0.44660570477954
N           -4.19754549768535       -0.83591284950244        0.81118756647145
C           -5.05651267930753        0.31672533328856        1.12480686317748
N            2.54636865403933        1.90367303968167        1.02538956141423
C            3.74300685540027        2.03227101171102        0.37651976194703
O            4.48962124571967        2.97279139895598        0.65386615694828
C            4.05687578661311        0.96854014150129       -0.64867415828221
O            5.14505168961258        1.03055916284705       -1.25742724492196
H            5.40101629694037       -2.19012151810938       -3.83270438941889
H            4.43188605739981       -3.24313694020943       -2.76535883374008
H            3.63494457306569       -2.31715513579990       -4.05864732421692
H            1.19366170954435       -0.47089610001012        3.08854521304537
H            1.49421494596356        1.24449938193800        3.42671253597468
H           -0.11217655804951        0.55587373411930        3.71021720777406
H           -1.23053754240131        2.23849044041860        2.18060114519773
H            0.32991571445069        3.03204464246884        1.95902717496097
H           -0.59927580702866        2.50970117829966        0.54430542997283
H           -0.48414814705040       -0.10370100766701        0.04228244699307
H           -3.40714890525514       -0.98875941254765       -3.33814355977901
H           -3.00020962134615       -2.62408351824601       -2.81306442933169
H           -4.70155876925078       -2.12718086765201       -2.90990400945742
H           -6.08299201499613       -0.03111613643588        1.23533744845693
H           -5.01095492496278        1.07971297133537        0.34076580672084
H           -4.70688362653485        0.73683199781147        2.06751698920958
H            2.34124925934816        2.61390664751916        1.70880087898573
