42
 energy: -82.973321628730 gnorm: 0.000181259373 xtb: 6.5.1 (579679a)
C            5.96633072932074        0.86618282841459        0.31994052444722
O            4.60292435510825        0.70921366202169       -0.09853880629075
C            4.07901265316521       -0.49630996026514        0.02439385259515
O            4.65944048734049       -1.46145614469831        0.45130865890568
C            2.62731012829661       -0.52459478705043       -0.40041085388885
N            1.87682399542026        0.45230413257223       -0.06495508016917
C            0.50245178521493        0.33413818747163       -0.32808100050156
C           -0.34919692679595        1.33146352203076        0.40799545527952
C           -0.03264576432369        1.26258723202301        1.90906688323773
C           -0.03291326178340        2.72638283233400       -0.15756401416392
N           -1.74358923462613        0.98310715007414        0.16730030559111
C           -2.77979516991571        1.67531902082402        0.67681914339190
O           -2.68722968880921        2.69042828634330        1.34875457624367
C           -4.09386103821464        1.07094162099266        0.34008826409884
N           -5.27235899846326        1.51286042880441        0.65269023557823
N           -6.17295487771081        0.62212600628124        0.14997663582021
C           -5.48902689232701       -0.31011317635304       -0.43700914133909
C           -6.00271778120888       -1.51031438340416       -1.13189542561948
O           -4.16717280812882       -0.08526564258397       -0.35498075537820
N           -0.01253266626437       -0.49778743876138       -1.15072035119464
C            0.82840563154611       -1.38792818381516       -1.82989332614109
O            0.58217272387472       -1.82651418293401       -2.92231426936207
C            2.08196945896358       -1.77766916762871       -1.05492091182699
C            1.70366228347920       -2.75706497119425        0.08318623247507
O            3.01594754565795       -2.35931943204977       -1.91597679640247
H            6.24309032098040        1.89214184468148        0.08889233750054
H            6.60473276745528        0.16424604402216       -0.22036206620025
H            6.04531794963031        0.67978692841642        1.39279793795616
H           -0.30268075087042        0.28283030714466        2.29902719718649
H           -0.59297363236459        2.02876065044001        2.44174407092324
H            1.03271259059531        1.42661780582428        2.06036358617635
H            1.03293587318689        2.92194578418935       -0.05301782435596
H           -0.30478932272017        2.77110360202441       -1.21089012170494
H           -0.59248306681779        3.48112883351216        0.39157887574582
H           -1.91490039514996        0.15127381300658       -0.38102762426944
H           -5.70417480030080       -1.49100499983641       -2.17998153876286
H           -5.58311090079489       -2.40837232288766       -0.67938346077634
H           -7.08743011368526       -1.53761734880460       -1.06179089483472
H            0.97411796910333       -2.30185053908548        0.74825429057251
H            2.60381440206323       -3.01321151530986        0.63831681521095
H            1.28614631147332       -3.65713523592259       -0.36225261573531
H            2.56921612937920       -2.63335909088551       -2.73345300000994
