42
 energy: -83.589760844421 gnorm: 0.000207969851 xtb: 6.5.1 (579679a)
C            3.93393360927964        4.01501575835143        0.32521818995029
O            3.75806813636254        2.67279652094052       -0.06657197555535
C            2.45932842942651        2.15902550876559        0.15032322140131
O            1.59073361399114        2.92844134517255        0.63004487833177
C            2.29364877118370        0.80827277021527       -0.20318000975973
C            3.28342179022871       -0.08490545681355       -0.75149253579952
O            4.56392150247419        0.35755542950068       -1.04507729501013
C            2.93562758908851       -1.38544592826585       -0.98379724332347
O            3.89706297122952       -2.23850849237372       -1.51395420957697
C            3.47596197341844       -3.56492451942810       -1.75889138065413
N            1.70057845082211       -1.89994187859333       -0.73135587481182
C            0.81275363923358       -1.00295394131258       -0.25217693607836
C           -0.58208166939085       -1.55320289601830        0.05963746941258
C           -0.90385414029822       -2.74825402309312       -0.84675662410654
C           -0.58775443605127       -1.98949260975565        1.53916278293013
N           -1.53729567140680       -0.47694634132824       -0.17286570306853
C           -2.87949842370812       -0.57344512709072        0.16704921131141
O           -3.44457423168571       -1.66463095475990        0.42388719670814
C           -3.53850414150652        0.69379244529415        0.11735313792822
N           -2.97531224506421        1.87850968035832       -0.15666030226579
N           -3.97769646225524        2.80766302258882       -0.09779800493851
C           -5.06942380000484        2.18315386550118        0.19817245215186
C           -6.42146537366514        2.77446119333230        0.36329118305405
O           -4.89616983696805        0.84639674533688        0.35584119026098
N            1.01911728460695        0.25531129748543        0.01364115885458
H            3.26948833388284        4.69099749065407       -0.23060526599184
H            4.97077505774555        4.28391097012741        0.11388769469008
H            3.74190733088288        4.15204039312759        1.39833717511231
H            5.07450179305155       -0.38317900184582       -1.39301216667426
H            2.64708174919927       -3.59419176563549       -2.47803176805056
H            4.33155042812631       -4.10138360696690       -2.17180617752007
H            3.15014218080765       -4.05739307739280       -0.83381675223563
H           -0.92351919062080       -2.43077773579499       -1.88991286980770
H           -1.87050357793035       -3.17947792913620       -0.58960481801954
H           -0.13504420385541       -3.51151905026233       -0.73080643169004
H           -0.37274440885578       -1.13343480177319        2.17994287807237
H            0.18068106004545       -2.74630277997920        1.69491058767834
H           -1.55427828767824       -2.40887870983771        1.81653182690182
H           -1.12718620426445        0.45566687508836       -0.11547484333936
H           -7.11190567885147        2.35816791462768       -0.37103436748579
H           -6.36549018398120        3.85216919289432        0.22899618073504
H           -6.81598152703724        2.55584220810466        1.35581814027911
