43
 energy: -83.121567470652 gnorm: 0.000168731255 xtb: 6.5.1 (579679a)
C           -5.35885292299857        2.74689239889266       -1.45516418106017
O           -4.34813567614900        1.83778176568147       -0.99658356315837
C           -4.32755558833624        0.64165832640176       -1.55332294122907
O           -5.11836476600808        0.27831670829016       -2.40500201410037
C           -3.23350480975001       -0.23425317880890       -1.05986815176442
N           -2.41394330841700        0.26602258658005       -0.08919505350630
C           -1.42593895309005       -0.45315770784823        0.33081123171437
C           -0.52697955050104        0.07400074073413        1.42644969399583
C           -0.74774887161636       -0.76086232961949        2.69642194650870
C           -0.80543084031739        1.55865335908690        1.67687775956887
N            0.86105410886824       -0.08267644690372        0.95777362889189
C            1.92365283014562        0.23085517587861        1.71551821176661
O            1.92992078597743        0.59460609244751        2.86977538463695
C            3.21301518636720        0.09178806178932        0.94480292380016
N            4.45182791119919        0.37340400888384        1.45057383088342
N            5.29572875874675        0.18490546702348        0.52919136198727
C            4.64122603879294       -0.23809100543233       -0.66164177750614
C            5.09487974417014       -1.64571847042562       -1.06596316566340
C            4.83536561555021        0.78690665997578       -1.78591775089050
O            3.26299098507893       -0.26947936187429       -0.28056929660395
N           -1.17791636843101       -1.70235296983675       -0.14899857613738
C           -1.94175918338342       -2.33405569156382       -1.12284436924509
O           -1.66729142330474       -3.45181000802263       -1.50520337102824
C           -3.05604078733659       -1.49554999498846       -1.59149774357701
O           -3.83077963246424       -2.01938343612615       -2.52658803736221
H           -5.24271846567746        2.91696622349467       -2.52752846717078
H           -6.34946813276334        2.33247387545103       -1.25648563454802
H           -5.21266008597263        3.67281541441820       -0.90324702721850
H           -0.45180460582478       -1.79294013969531        2.52032926216745
H           -1.80351767555835       -0.73092855202737        2.96152015410253
H           -0.16280757076255       -0.35652103493662        3.51988937191499
H           -1.85156891208533        1.68220860154919        1.95213846917454
H           -0.17312760368040        1.92628535640293        2.48243173520942
H           -0.60747522633446        2.12897473411797        0.77141156729683
H            1.01429925161792       -0.31309191906373       -0.00991152247185
H            4.52084746460184       -1.96140604347402       -1.93358254127492
H            6.15447915330382       -1.61685646411314       -1.30868352362029
H            4.91992866522216       -2.32996030169924       -0.23866072497070
H            4.47224880439120        1.75691600239398       -1.45339622631668
H            4.27153606333694        0.46055913488391       -2.65619609582712
H            5.89377379673811        0.84776884139615       -2.02758286149474
H           -0.38602765069856       -2.22421741491706        0.19292981883458
H           -4.53535555265403       -1.37744806438953       -2.79355173470451
