42
 energy: -83.625804866790 gnorm: 0.000455608967 xtb: 6.5.1 (579679a)
C           -4.46137301050464       -0.79960357460030       -3.23933098700112
O           -4.21109603229973       -0.39573626345509       -1.90722137871023
C           -2.88792925825187       -0.26618059169608       -1.56491317304583
O           -2.02355167125738       -0.50215723592981       -2.41342370311328
C           -2.63197513096450        0.13279997594997       -0.18872399309409
C           -3.68239562076818        0.36980802492821        0.74737530085104
O           -4.92408038712238        0.41783051571565        0.47839655311895
C           -3.24936599740198        0.52309021219491        2.16642221069165
O           -4.02507758886244        0.58282072734392        3.13368835736159
N           -1.89536207883159        0.49114334590096        2.40569742350234
C           -0.91746239465107        0.75846404977715        1.35966428271978
C           -0.74101669953259        2.29811608689072        1.22361414247711
C            0.44145163389782        0.07810776592013        1.75550054654229
C            0.18020129434530       -1.40515435877279        2.06276327417633
C            1.12279477827125        0.75539403549405        2.94887559674515
N            1.27623580130207        0.18328777624475        0.56214252006424
C            2.56792444087129       -0.24512662910699        0.48318526848467
O            3.27094453449397       -0.55383370972584        1.45931775840201
C            3.05001332432742       -0.25053356279170       -0.89025751012485
N            2.35213339446711        0.03947105281250       -1.97312632289499
N            3.19437698140376       -0.12615423736957       -3.03789287632567
C            4.33649893447548       -0.50227314187645       -2.56218456234056
C            5.57232610809966       -0.80087915235175       -3.32528549231171
O            4.33194732741927       -0.60780686816905       -1.21652699581460
N           -1.29905369434556        0.20702755658490        0.09777355560539
H           -3.99563027682047       -1.76880853227250       -3.45364499488063
H           -5.54235950078678       -0.88373928898596       -3.35523661189369
H           -4.07500551588603       -0.06403754385829       -3.95476992573352
H           -1.62810299988748        0.75635050224586        3.34018933179900
H           -1.65080926224265        2.72471146712300        0.80154310628145
H            0.09291716034779        2.51353044828161        0.55783658499774
H           -0.55817136736394        2.75676609069642        2.19317660480725
H           -0.44247049740619       -1.49591087399906        2.95200074002699
H            1.11972439579643       -1.92779953346210        2.23712692698385
H           -0.33696441888026       -1.86713358473116        1.22016930837638
H            1.53247871204159        1.72313258642742        2.66287472386996
H            1.93800439742354        0.13756242329875        3.32313204549132
H            0.40949669777312        0.90112600223554        3.75889299155905
H            0.73229493162061        0.19210438973170       -0.30486289233929
H            5.38330915315964       -0.67469733906453       -4.38855559485003
H            6.37533735936595       -0.12986621828709       -3.02033435811455
H            5.89884304316406       -1.82289779529345       -3.13506678234661
