46
 energy: -86.330376975833 gnorm: 0.000644889391 xtb: 6.5.1 (579679a)
C           -6.54554175025997       -0.28298879552003       -1.09740630488091
O           -5.38379157653747       -0.12190811143065       -0.27483229468586
C           -4.21967757428666       -0.01506443172681       -0.90343580176185
O           -4.10024943938649       -0.04650242528478       -2.10633753909514
C           -3.06190555313834        0.14881762607291        0.02741142459528
N           -1.86409333700074        0.31310112109286       -0.61144119074920
C           -0.74895542492479        0.45579204582600        0.02340330098305
C            0.46173347402320        0.70253987642042       -0.87816235535100
C            1.39615441089296        1.80756725539815       -0.38452593998020
C           -0.03004118200683        1.06242259744356       -2.28114340600038
N            1.25950416369011       -0.61083850823873       -0.93237202352652
C            0.50998081096461       -1.75635932781950       -1.52028979469697
C            2.55978335782274       -0.45361102577542       -1.69746097235106
O            2.53800722041672       -0.35646356399933       -2.88287228617120
C            3.70719467226265       -0.48823892341263       -0.83156154132595
N            4.97017707866900       -0.43412335830823       -1.16794206691209
N            5.68128590497780       -0.53223189865638       -0.04099713330985
C            4.83101177302271       -0.64334250625654        0.94871056918810
C            5.12760074477226       -0.78150420945572        2.38387621187642
O            3.56853998073578       -0.62098944930043        0.50927613483010
N           -0.69130346017176        0.41560071249090        1.39687038710707
C            0.52992253251229        0.47553117088137        2.19934433822363
C           -1.85597636938405        0.30369084549092        2.14777097485018
O           -1.85216266324915        0.30501620181358        3.37024125408588
C           -3.09685348807981        0.16202213968574        1.39296906969185
O           -4.19824482886357        0.03804422273878        2.12960936176724
H           -6.66843292762312        0.58840571741017       -1.74515512361781
H           -6.44658976666679       -1.18029017624303       -1.71252111793000
H           -7.39368045616397       -0.37711401181757       -0.42194150580252
H            2.01192471136879        2.16441198700887       -1.20974600677433
H            2.05655449180596        1.46579945249853        0.40526623871069
H            0.80002251160783        2.63947814415781       -0.01256669114707
H           -0.70131014671026        0.30433120273286       -2.67762718525768
H           -0.57714106994241        2.00165646091114       -2.21265972428492
H            0.80951918037065        1.19457112846868       -2.95895045844587
H            1.50239948810374       -0.86170011179687        0.02607136582148
H           -0.48188689874321       -1.77398428449866       -1.07788030578754
H            0.45590843577262       -1.62834214725118       -2.59817141355613
H            1.05849233927294       -2.66062866731625       -1.27108316980076
H            4.60716254993189       -1.65135572212954        2.78423051101083
H            4.76397006205124        0.09633113851761        2.91915659126428
H            6.20008465503530       -0.88352457307439        2.53386468447786
H            1.33523828950826       -0.06068933197780        1.71137164168971
H            0.31559085674820        0.00099785034088        3.15676487343011
H            0.81144114525876        1.51333237477990        2.36849961648233
H           -3.95136592846438        0.06233428910355        3.07437480312181
