20
 energy: -38.355867641637 gnorm: 0.000408873953 xtb: 6.5.1 (579679a)
C            3.74594809705299       -0.17936222036909        0.99219125901260
O            2.34942873026779       -0.08534845329079        0.77742870711600
C            1.94405687533902       -0.24806221552406       -0.53974422329646
O            2.78102701401944       -0.45459572240458       -1.43349615933930
C            0.55411205053966       -0.15274684943452       -0.71632057768116
N           -0.09249359384806       -0.26722104150049       -1.87495664445136
N           -1.36778155513005       -0.13344162053663       -1.71375826035288
C           -1.61917192516996        0.09902753363263       -0.28133876851306
C           -2.50478207044492       -1.02553129604180        0.27942935889781
C           -2.28900038196163        1.46917433765324       -0.08911861634695
O           -0.34421838121824        0.08118348434548        0.34262532028222
H            4.12176302096172       -1.17064520759679        0.71275348392634
H            4.28718822625565        0.57610418297984        0.41066494636496
H            3.91962878345940       -0.01180811112720        2.05543471217155
H           -2.67712208463378       -0.87262100161830        1.34326211199058
H           -2.00867441964038       -1.98375953824981        0.13432679238813
H           -3.45936614484732       -1.03657421068607       -0.24262742958768
H           -2.46653477881354        1.65584779080011        0.96839847449069
H           -1.63771822894005        2.24767773301983       -0.48317073815181
H           -3.23629023324755        1.49270142594893       -0.62376274892016
