21
 energy: -30.735652880366 gnorm: 0.000469272249 xtb: 6.5.1 (579679a)
C            3.74488249575978        0.25086024688380        0.25900862029800
F            2.72110431167779       -0.74850064838459        0.41997874283560
C            1.26962490208731       -0.56996568235700        0.26252704864313
C            0.74020833069572       -0.94178987585271       -0.94572533012111
C           -0.63749488187949       -0.80064851370475       -1.07066261630731
C           -1.40727449568186       -0.30563250549661       -0.01689025409872
C           -2.89006328831562       -0.07435217299053       -0.20082798574138
N           -3.11236725220090        1.28647559742622       -0.68311345037529
C           -0.78816829644364        0.05172594529669        1.18220040452466
C            0.58668268205740       -0.07665135460117        1.34364824650818
H            3.60574281737764        0.95782008007780        1.07160408614723
H            3.58642693507103        0.68948783494370       -0.72173168426035
H            4.66908471356682       -0.31447563910329        0.33319374331005
H            1.35499857599076       -1.32346297171524       -1.74828234423267
H           -1.10884461238593       -1.08046557247284       -2.00495649129216
H           -3.41631895260275       -0.19955462606104        0.74916398780164
H           -3.29882963679016       -0.77646780702788       -0.93224782865826
H           -2.71930424903668        1.93627693123649       -0.01505607889516
H           -2.60734772698812        1.40914012903591       -1.55069188430894
H           -1.37771955508889        0.43702259146101        2.00525439393615
H            1.08497918313328        0.19316001340576        2.26360867428905
