46
 energy: -87.062619199693 gnorm: 0.000833547560 xtb: 6.5.1 (579679a)
C           -5.07888940249174       -0.41982702962902       -3.27007454790403
O           -3.98160543430505       -0.32266493878403       -2.36728761466677
C           -4.23463252884971       -0.65032901072923       -1.08923001615321
O           -5.35391540692702       -0.99808901105592       -0.73994957860974
C           -3.05568376279804       -0.54575415579785       -0.20128907414728
C           -3.19117450195666       -0.73083969182592        1.17291908250659
O           -4.38605045879939       -1.10227101890790        1.78501821561268
C           -2.09986589082119       -0.42698693976295        2.04666082529222
O           -2.16945427258396       -0.44139456031643        3.28855932607085
N           -0.92591321153316        0.00874945202714        1.41100784878276
C            0.24289294110495        0.13339641838805        2.28185345824136
C           -0.69505576071574       -0.29231911463227       -0.01571335282420
C           -0.11481289102388       -1.72477983560555       -0.16964249169981
C            0.22324626517432        0.79753688757531       -0.68243597992025
C           -0.40058504331152        2.17298393449945       -0.41564707375478
C            0.31667373977727        0.55660243437979       -2.19808037316505
N            1.59520494026866        0.73132302320497       -0.15312185891179
C            2.56455624891406        1.61812677499469       -0.42832360519900
O            2.43729646575567        2.67674865040440       -1.02767252312360
C            3.88985664577006        1.19791260953474        0.11155161807749
N            5.00479284330036        1.85903381806090        0.06004026143352
N            5.95110166039049        1.08473534376707        0.66678645309770
C            5.35475666068707       -0.00056686073031        1.04896239280168
C            5.94970080448774       -1.16138881960857        1.74679501954185
O            4.04949828132338        0.00691376051743        0.73020740434665
N           -1.90956013037101       -0.23737566500073       -0.79831260724509
H           -5.88268948531002        0.25863787574386       -2.97031792391619
H           -4.70556898887016       -0.14316869692665       -4.25463759361261
H           -5.46640514899071       -1.44225683107851       -3.29073767515395
H           -5.06554602302303       -1.22615424651015        1.09753420165810
H           -0.09894186890754        0.16987667912627        3.31794005104015
H            0.78979868754259        1.05240041170072        2.07047868827413
H            0.92092582860644       -0.71714455241758        2.17153906416543
H            0.90690741267443       -1.81066972525196        0.19288288710887
H           -0.14117846127993       -2.01007804841982       -1.21930426841668
H           -0.73994832090104       -2.41845917820445        0.39125773527439
H           -1.45346702166180        2.13021522767858       -0.69755178453070
H           -0.33110618635341        2.43450313069440        0.63931203503808
H            0.08558195613590        2.94892900073285       -1.00324845715771
H           -0.68401396025868        0.47155671861160       -2.62014414201659
H            0.86878275323828       -0.35855860247825       -2.40586109867883
H            0.83576412186607        1.38837060779214       -2.67363971906757
H            1.89666127665049       -0.15155837595062        0.22749991542219
H            5.41996024024033       -1.34904236777667        2.68041190172107
H            5.86355094255641       -2.05289612184737        1.12541834328455
H            6.99855344557626       -0.96398136018864        1.95448563107896
