46
 energy: -87.045991581957 gnorm: 0.000344382198 xtb: 6.5.1 (579679a)
C           -4.37316240954922        2.19385404145624        2.96119103181856
O           -3.47447137013400        1.63066299449161        2.01224692015931
C           -3.70514900558718        0.34730519288213        1.66810899024811
O           -4.63480704546417       -0.28395718192086        2.17227395064342
C           -2.78586491728840       -0.19253991097547        0.68070838357279
C           -2.90868656186087       -1.47379656695244        0.23092124036552
O           -3.86058918337895       -2.31206687345049        0.66204570183682
C           -2.01463392964658       -2.03926770998661       -0.91133921733599
C           -2.67511831555924       -1.54138315274423       -2.25091647643268
O           -1.74526424761793       -3.29147494440282       -0.87258410112820
N           -0.69285651732664       -1.14366447900738       -0.78799149981634
C            0.47649530585133       -1.76793910928864       -1.37948797418492
C           -0.77690653580411        0.15243630481605       -0.43931392803224
C            0.28896849719267        1.18564832235814       -0.84427045436931
C            0.10223899740371        2.47550710525662       -0.03271552816566
C            0.13069258821208        1.50944502825953       -2.33456693852703
N            1.65482094013478        0.69573224936644       -0.63453082558630
C            2.16014174751142        0.37011335901983        0.56962805390031
O            1.55473482059634        0.37797622294760        1.62799707777579
C            3.58880218400014       -0.03956064164611        0.44893315618982
N            4.26232726895170       -0.15390519365649       -0.65670896351699
N            5.51633967045663       -0.56631532948764       -0.31306579609537
C            5.52679005868515       -0.67642170606221        0.98010732430324
C            6.66148955808180       -1.08054446990002        1.83955972574018
O            4.33970048857977       -0.36021003040286        1.51956110764408
N           -1.77194547333514        0.66248592382668        0.21952664081605
H           -4.35304411607939        1.62528062170653        3.89560920576998
H           -5.39395629674844        2.19375773502086        2.56822072784396
H           -4.04584070620497        3.21656921072337        3.14136129020109
H           -4.42383034707529       -1.86303324447986        1.33453888742503
H           -2.81293643040847       -0.46212787883027       -2.25403653906293
H           -3.64065878576908       -2.03292684403429       -2.35877880976141
H           -2.03575007440447       -1.82893962203317       -3.08294606904068
H            0.81217758393479       -1.24813314819969       -2.27928575721534
H            0.20774071376004       -2.79469774451459       -1.64872674776602
H            1.30415257271802       -1.80811336462316       -0.66719459375963
H           -0.86220466374121        2.91906582397887       -0.27430609958135
H            0.89337834818629        3.18198149010592       -0.27890322729408
H            0.12797325046211        2.26357665405151        1.03523532843976
H           -0.88479040970183        1.85584628346624       -2.52179730830363
H            0.82674081270963        2.29581236656307       -2.62286713764826
H            0.31992565868459        0.63550472433389       -2.95457474010108
H            2.28216972498364        0.70326909015539       -1.42213038914037
H            7.47333675140247       -1.45228237970116        1.21949241460044
H            6.34695210281898       -1.85356012816548        2.53957254543190
H            7.01437669736065       -0.22497009032097        2.41589441714446
