47
 energy: -79.455414775937 gnorm: 0.000976472571 xtb: 6.5.1 (579679a)
C            5.91072562255926        3.05241134867975        0.45193282320549
F            5.99721248594826        1.63893254592736        0.73038271819280
C            4.91304556849474        0.66619553273258        0.90306584607174
C            4.65630903408013       -0.15282879372035       -0.16650455354594
C            3.65640094322125       -1.09962379010006        0.02267681024638
C            2.97225047468924       -1.18009587029135        1.23602029411173
C            1.87044444544175       -2.20406700714353        1.40792796299233
N            0.64914573676785       -1.73559088923708        0.77523894538914
C            0.42361391102890       -1.92998948752782       -0.53703891602323
O            1.17887927705514       -2.58528712726467       -1.25911442091580
C           -0.83002738492436       -1.32570645297984       -1.03936036974658
N           -1.55843980144468       -0.58748511191504       -0.15250911493590
C           -2.67308333074855       -0.02450684988280       -0.51223451130263
C           -3.41021840335556        0.74073944882952        0.58092374109206
C           -2.48542450494913        0.89995603504325        1.79817719512630
C           -4.66317985159778       -0.04264640199653        0.99892300296261
N           -3.79922425169995        2.06474760776567        0.09900245702706
N           -3.16440206181790       -0.16869803667780       -1.78015272846795
C           -4.42953778411468        0.41555551071545       -2.24067180659297
C           -2.51271749278563       -0.91848174533621       -2.76180166767177
O           -3.00248087970533       -1.04443851595735       -3.87680435151642
C           -1.25132352338285       -1.50685791104867       -2.32999951714029
O           -0.57669753001569       -2.21956954081020       -3.24121871989879
C            3.28676136096427       -0.30605105488939        2.27480030337477
C            4.28463714491676        0.65131259024626        2.12091962263567
H            6.45551897063952        3.52620623292582        1.26338916721650
H            4.85295347832986        3.29752171205127        0.44713442471637
H            6.38349294148704        3.17486117258723       -0.51850000099346
H            5.20268584658159       -0.06982302544533       -1.09529064765673
H            3.40656295246763       -1.77748797104701       -0.78530353425642
H            1.66418303598316       -2.37427566499334        2.46585322669930
H            2.15691173844878       -3.14623143922481        0.93056791943180
H            0.06410931260642       -1.08184545294689        1.27458676352114
H           -2.23068712049225       -0.07205413607402        2.21683620680815
H           -1.56747788792165        1.40600477016348        1.50609025537578
H           -2.98845687280544        1.49409111820002        2.55930505237931
H           -5.11825674639784        0.43774122529076        1.86383042303414
H           -4.38900022214356       -1.06196008854706        1.26862345342110
H           -5.39523307143186       -0.07363785191791        0.19409793386204
H           -4.32859687500442        2.52815757339026        0.82557029723691
H           -2.96493316260955        2.61226421116064       -0.06353612073016
H           -4.28831280232943        0.77401099478945       -3.26116459684489
H           -5.20335538795324       -0.35324300835110       -2.23673744712520
H           -4.71340948706850        1.24457085886733       -1.60018645038332
H            0.25516414109824       -2.55778353064662       -2.83526120972832
H            2.75653528872603       -0.36281964109622        3.21714982975855
H            4.54693272517699        1.33780590771057        2.91293000961949
