20
 energy: -37.598218049713 gnorm: 0.000749225066 xtb: 6.5.1 (579679a)
C            2.51256608056084        1.71965780718119        0.02420266277887
O            1.30673697671905        0.91575421265558        0.05217928932526
C            1.41159004083252       -0.33962834487472       -0.21736174489373
O            2.36813797686311       -0.99533343539042       -0.47348058094216
C           -0.03608184676816       -1.04265585365925       -0.14067524503975
C           -0.04591906066276       -2.30312299366045       -0.99102890902294
N           -0.25162436147208       -1.21841751291121        1.24793392901502
N           -1.16616339771133       -0.44712137481217        1.63920903127263
C           -1.63980324431971        0.23807551738490        0.53995931004265
C           -2.70569991495687        1.22837987509076        0.56532549626526
O           -1.01691371126228       -0.11015219462530       -0.52106657417508
H            2.92583799084091        1.70838626234172       -0.98429696020533
H            3.23293201080307        1.31262676691820        0.73412839155231
H            2.20242438814036        2.72154426015923        0.30861042158158
H           -1.00272470894719       -2.80609081088181       -0.87243153810828
H            0.76422158343686       -2.95080020035939       -0.66198847619318
H            0.10080890177347       -2.02942404632585       -2.03355110938036
H           -2.80845299340857        1.71673594475679       -0.40105791478271
H           -2.51074358077448        1.95592333869783        1.35564707679863
H           -3.64113012968687        0.72566278231419        0.82974344411147
