42
 energy: -83.588685313314 gnorm: 0.000362028330 xtb: 6.5.1 (579679a)
C           -1.01871925341683        3.05543244082590        1.05979197832324
O           -1.30258952575551        1.73750867284808        0.63726702845081
C           -2.08710463025463        1.62985047345416       -0.51564354670529
O           -2.48145170218147        2.66554299441349       -1.05923947662368
C           -2.31594855115119        0.27920283531910       -0.88857411217002
C           -3.02134685666978       -0.12166349819571       -2.04568516886320
O           -3.55455441766483        0.63621290989643       -2.89098485150244
C           -3.04200585188762       -1.62467601147398       -2.29553235196550
O           -3.90752166411454       -2.19557671833541       -2.99420919015514
N           -2.00496357709283       -2.31523676697587       -1.77827821103756
C           -1.19343680807943       -1.88698707225875       -0.66386933298730
C            0.27249760145488       -1.62882828737947       -1.08077285231297
C            1.00984548322181       -2.98094716547539       -1.08015796161478
C            0.44207060204247       -0.95235330381656       -2.46090516966786
N            0.84815780444176       -0.76171419992007       -0.04812164677920
C            2.12387598117312       -0.36478035186053        0.02731179183369
O            3.03461252638172       -0.70562380793976       -0.73532880599059
C            2.35148677404248        0.55392859075529        1.16531096835957
N            1.45988704151369        0.99184920959892        2.01657696471256
N            2.11667193955821        1.81678448827880        2.88706088849889
C            3.35778366432991        1.83362608645578        2.51981634171604
C            4.47096125828954        2.58422256441233        3.14578960061977
O            3.58246385838461        1.06099504596107        1.44138880992063
N           -1.78376945029097       -0.74095762942598        0.00506358353034
C           -2.80045422481113       -1.18261513817786        0.97623886071976
H           -1.93555065268270        3.59351096486720        1.33111191824268
H           -0.37050315764079        2.98267133714042        1.93507067651646
H           -0.50302553857353        3.62487110051066        0.27597421241428
H           -1.99507230988880       -3.30190306127360       -1.98477548134533
H            0.92802143444499       -3.43451757333847       -0.09260235102299
H            2.06328350396187       -2.87197489223368       -1.33758055552692
H            0.53941199590349       -3.64473181173037       -1.80441846203270
H           -0.02606517542832       -1.57227337407009       -3.22540235369168
H           -0.03320962390079        0.02981440030735       -2.45907770272708
H            1.49759237684640       -0.83564543902486       -2.70677176188669
H            0.17218658957817       -0.37867759580759        0.61584157376407
H            4.09543223540429        3.15347646678507        3.99196856240547
H            5.24384952768443        1.89626420589582        3.48709246111369
H            4.92087355866642        3.26415368173918        2.42279576235777
H           -3.10316266143074       -0.33668892359243        1.59853225994973
H           -3.69339909107331       -1.59798278191684        0.48546416751790
H           -2.35711103332343       -1.95356406522028        1.60901293565216
