43
 energy: -83.153075025201 gnorm: 0.000233781516 xtb: 6.5.1 (579679a)
C           -2.63592276463935        2.13011959735457        2.71470776155882
O           -2.29437174576572        1.21308848022182        1.66763778738395
C           -3.30247474689417        0.78393964032066        0.90616920689376
O           -4.44763435871212        1.13165498319672        1.05915924410849
C           -2.83341212392569       -0.17039217447897       -0.14124394518155
N           -1.47780910871452       -0.40917232140257       -0.16728002705649
C           -0.97943442202693       -1.22605848116399       -1.03065603919702
C            0.52695622364178       -1.38370646926886       -1.05759145066333
C            1.00205610075890       -2.79842787148741       -1.35963653477751
C            1.09466072032678       -0.37608544036644       -2.06356322386306
N            0.95592681830106       -0.94726677123745        0.33197011082214
C            0.70474910609525       -1.95089697160597        1.39898844676647
C            2.40172173427454       -0.53513185217858        0.39304707488438
O            3.25822227785204       -1.35689634933295        0.31800450302018
C            2.49281085296023        0.89030315339211        0.57556857211392
N            1.47337161153560        1.71285645926086        0.64420601677751
N            1.97266790527525        2.94085137127597        0.81257621431615
C            3.28125980121598        2.82115537232972        0.84189006904981
C            4.27637945401282        3.89562278226215        1.00698168661915
O            3.65658731155272        1.55261319437102        0.69542010782426
N           -1.73444863628229       -1.87520672779220       -1.95478215314654
C           -3.10604490197447       -1.72333061889510       -2.02692702351674
O           -3.78775946545011       -2.31304337069081       -2.84378161287490
C           -3.65806394005448       -0.79296877691469       -1.03848305493164
O           -4.97566062454818       -0.61456234763679       -1.08535831657984
H           -1.70715004147172        2.37359224568717        3.22581852645171
H           -3.08587302688290        3.03151781674242        2.29113704752442
H           -3.33920885814869        1.66129636829939        3.40716160204792
H            0.84801121145708       -3.00419031773519       -2.41744842749939
H            2.06584058441525       -2.88733770138836       -1.14584055136568
H            0.45230496046955       -3.53404882176583       -0.77655940761031
H            0.66034554594337       -0.57563752081207       -3.04176898336364
H            0.84019055163481        0.63976992860628       -1.76398851289864
H            2.17626338063224       -0.47446683920289       -2.13443447340036
H            0.35492399732774       -0.12443231432794        0.53808155112877
H            1.39513350378760       -2.78003095264555        1.27662855987053
H            0.87058629520156       -1.45816599070317        2.35405210759584
H           -0.32713269644581       -2.27838797535010        1.31328957794424
H            4.85006357091387        4.00816300201191        0.08574417664605
H            4.97353402517705        3.63472006523182        1.80313682506933
H            3.77440919977980        4.83179419025925        1.23963368927129
H           -1.31282337986620       -2.50482643496159       -2.62021931546176
H           -5.35375090272304       -1.15838823745788       -1.80083941229676
