42
 energy: -82.940533369051 gnorm: 0.000721375814 xtb: 6.5.1 (579679a)
C           -6.16221934843025        1.34266777438492       -0.56571714344240
O           -4.89019346150568        0.70553425100505       -0.44024521378183
C           -4.60554388869846       -0.23456625607606       -1.35597243038543
O           -5.37682143496549       -0.53653445605100       -2.23908550126437
C           -3.26116276347949       -0.82411251885350       -1.14097264722326
N           -2.56546329896361       -0.33048308330767       -0.09535804859367
C           -1.37000947115562       -0.76512762093873        0.17748577256470
C           -0.65030764755407       -0.23324845601158        1.39298664807324
C           -0.79734449761140       -1.27723914793480        2.51335701839356
C           -1.23885339610596        1.11817415081009        1.81016251459629
N            0.76534953336094       -0.06307693795896        1.04495279568734
C            1.69701338058637        0.31955464522192        1.94522232396795
O            1.52242097043260        0.47056401933611        3.14139169868354
C            3.02313273917492        0.55267795981049        1.31894866960703
N            4.11798681704981        0.97428633498886        1.97184356316550
N            5.07392207613585        1.10020981317198        1.12716092338619
C            4.60021750865546        0.74499086992546       -0.18410768344102
C            4.68080517567127        1.94954907661503       -1.12488005335056
C            5.36609265351908       -0.46728888554319       -0.71888648489246
O            3.22907268967078        0.39396092770666        0.03189767894486
N           -0.77399180289473       -1.74559255403907       -0.55125120477394
C           -1.35614658241867       -2.35661191302091       -1.65270085882146
O           -0.75772487232298       -3.22542347240114       -2.25358125487476
C           -2.74442161851120       -1.85681964106977       -2.00318195758743
O           -3.33571816271812       -2.34170582008317       -2.96367953874389
H           -6.96541095199829        0.60710974131275       -0.47134691886292
H           -6.24138218326068        1.84052681805006       -1.53569507733586
H           -6.22523938434405        2.07341527381280        0.23792966621529
H           -1.85437897915583       -1.49270353490240        2.66413698751587
H           -0.37654662655218       -0.89793070597450        3.44199472612795
H           -0.28177252505999       -2.19393504713060        2.23324125014957
H           -2.30448596242506        1.00244787909935        2.00162975784165
H           -1.09904322532512        1.84405017009403        1.01110155448349
H           -0.74589403956933        1.47624671755483        2.71165478492597
H            1.02003885793119       -0.05152683309987        0.07095614236394
H            4.27865010098817        1.67306969422296       -2.09621075153965
H            4.09957031515007        2.77038343102915       -0.71028744080613
H            5.72001116146348        2.25142216904924       -1.22868794265522
H            5.26431684342365       -1.29553439892885       -0.02100253968613
H            6.41579301771371       -0.20558853855282       -0.82688306096616
H            4.95584440726491       -0.75248250345861       -1.68444183418986
H            0.14984087684413       -2.06330939186335       -0.30484188947094
