38
 energy: -79.621620320398 gnorm: 0.000899484043 xtb: 6.5.1 (579679a)
C            5.53029988377528        0.92484515871692        2.03813946538918
O            4.36998049658303        0.69155171790861        1.25244877140340
C            4.33290257983299        1.33792541616746        0.04643158334321
O            5.25345552297150        2.06645348524411       -0.28944063662145
C            3.12817949931916        1.03830969306213       -0.70914442131218
N            2.24302591600125        0.17490715926296       -0.09074127486595
C            1.15542647581473       -0.16889003812851       -0.67055739570010
C            0.18797623676846       -1.12646227518231       -0.00683490954566
C            0.19787209305200       -2.46727286318789       -0.75480273230827
C            0.57181940673179       -1.31562341234033        1.46361191101659
N           -1.15018478077943       -0.51985248911477       -0.09447853194406
C           -2.26969535785484       -1.09456154424816        0.38091752865734
O           -2.34932050850491       -2.19984093406048        0.88978321909962
C           -3.43967251558580       -0.18918407431316        0.20841538888733
N           -3.41354452028360        1.00818156709800       -0.29370486372563
N           -4.69114139006053        1.48296697435782       -0.24607380742957
C           -5.41358663745896        0.54398908362685        0.28354087476907
C           -6.86947158198321        0.56550241528409        0.54648952579104
O           -4.68169254744918       -0.53676111779244        0.59310073421854
N            0.82110355794113        0.28961608787147       -1.93134814776258
C            1.59925000945870        1.15682841155312       -2.65686178897406
O            1.23056063416965        1.51724921058878       -3.77155394056751
C            2.88543431409304        1.59869787833753       -1.99204287348131
O            3.62442635503593        2.39532009733347       -2.59605934772506
H            5.63953847697765        1.99050962721937        2.26448175166900
H            6.42887127626584        0.58117213035547        1.51513177229346
H            5.40697775339229        0.36358906039362        2.96343214124382
H           -0.47505995224614       -3.17558675572909       -0.27586663219459
H            1.20711808293376       -2.87662014233300       -0.74565875420486
H           -0.11699607118211       -2.32330716948830       -1.78677765748177
H            0.49937349782437       -0.36570912535451        1.99185125399129
H           -0.08631923732423       -2.04128303084914        1.93690174653817
H            1.59979421632625       -1.67097431338927        1.52176335459997
H           -1.22498528873539        0.42129081212836       -0.45286533027157
H           -7.37152032515244       -0.17568124623067       -0.07653105354145
H           -7.06519856124016        0.31660430224709        1.58933963538985
H           -7.26662596164091        1.55299647717051        0.32332580314628
H           -0.02837004778349       -0.02683023418621       -2.36776436180027
