42
 energy: -83.657689393561 gnorm: 0.000163333175 xtb: 6.5.1 (579679a)
C            5.29291283734648        1.63314170674833        2.63689673685740
O            4.34568584920775        1.69061872334835        1.58627224165249
C            3.48000990228509        0.63143706360927        1.51304567940158
O            3.55693266451670       -0.27298837356901        2.34524343097307
C            2.53711759547787        0.68791741710480        0.41927732588922
N            1.70327431850219       -0.42387321816128        0.36338258169652
C            0.82590601812839       -0.51706364602531       -0.57620018583149
C           -0.00175716889646       -1.79572630985824       -0.70497332241489
C            0.31148537742585       -2.70121945156531        0.49480883318161
C            0.41438380059695       -2.52117068055192       -1.99877033352364
N           -1.46182748109251       -1.62565969441621       -0.71091806810395
C           -2.11143911800783       -0.55338339616787       -1.55150308879101
C           -3.52768315548127       -1.10860489908259       -1.87476358688926
O           -1.44876159885473       -0.20957842496211       -2.65354817471689
C           -2.31807313037431        0.63784448334684       -0.58692370347015
N           -1.81596865561862        1.82661998264287       -0.63997191232411
N           -2.29772534046761        2.51784351726302        0.45325801694226
C           -3.05998290418519        1.69975187851442        1.09338791047029
C           -3.83023117330738        1.95815115314475        2.33350498220858
O           -3.12077091399566        0.49118209152461        0.49905453623989
N            0.66600248008154        0.42849829094924       -1.54554511997110
C            1.39461715731654        1.56867378524421       -1.59849809552139
O            1.20003999188057        2.41706860976205       -2.48266952298424
C            2.45974213226806        1.73812275983223       -0.53256136997311
O            3.17634557098410        2.76598898767073       -0.55499177023909
H            4.79732379192701        1.60436970587327        3.61337161601806
H            5.90858039859352        2.52980887060557        2.56749838211161
H            5.92864973155996        0.74577877762549        2.54419461156172
H            0.07518561405122       -2.18846528092842        1.42764182614909
H            1.37024392438010       -2.96041110072092        0.50516593510484
H           -0.27737176529369       -3.61557362946452        0.43600125355539
H            1.48602282424447       -2.72261968665663       -1.98877262243432
H           -0.12201839007492       -3.46686525825491       -2.07209577194777
H            0.17519504406624       -1.92010447212384       -2.87511178064187
H           -1.80377440597239       -1.53545149457573        0.24064992486794
H           -3.41546292869839       -1.99478406528437       -2.49639910171701
H           -4.05860392853327       -1.37424177283123       -0.96375960322336
H           -4.09569582898937       -0.35701122163575       -2.42093565670621
H           -4.89423951227952        1.81475015234210        2.14918264249360
H           -3.65749063160903        2.97874519366672        2.66614566299859
H           -3.52963501331130        1.26431673989968        3.11776115291479
H           -0.25714497980116        0.23416518611272       -2.17683449188542
