42
 energy: -82.978057204420 gnorm: 0.000725549012 xtb: 6.5.1 (579679a)
C            7.06927583718149       -0.76290929275060        0.79003781635414
O            5.84075975193613       -0.07332993711959        0.98176635608243
C            4.87413088471588       -0.32147850594063        0.06524177770577
O            5.07643442737947       -1.09415387197801       -0.86354921744504
C            3.62539617364560        0.39510971959078        0.28850462687136
N            2.66919019141785        0.10785034915568       -0.66803175859379
C            1.51469734028863        0.65501311103024       -0.62375462949753
C            0.48055613365895        0.36752379123971       -1.69019581614486
C            0.29825863039058        1.60410348217212       -2.58121487886759
C            0.90012995543202       -0.85433282913633       -2.51022604360743
N           -0.79412122356102        0.07795238631061       -0.99408602114754
C           -1.93836118484627       -0.18678421666657       -1.62902293154373
O           -2.12717407572769       -0.24562483498016       -2.82566920479983
C           -3.06135183685484       -0.41769064889985       -0.64749632510094
N           -3.00280096713951       -0.39695431712073        0.65101122788136
N           -4.26194853350247       -0.64293143286748        1.05842972027261
C           -4.58027889234962       -0.69866286416815        2.47023732544446
C           -5.04761097580383       -0.80624532863518        0.01386776969025
C           -6.49308913426836       -1.07952627961656       -0.01688194877483
O           -4.31386508370233       -0.66933102372969       -1.06939137410955
N            1.17036568901458        1.56152182797116        0.36361655956210
C            2.01166441577799        1.92216194959749        1.38886954363274
O            1.62168426418574        2.71300038809202        2.24220237357812
C            3.38820718654793        1.29227005598785        1.36356643819241
O            4.19325666098868        1.59655590661267        2.26045797982432
H            7.49948470281280       -0.52274894369247       -0.18719850312219
H            6.91805209328616       -1.84498371823591        0.85272454247117
H            7.74475908401929       -0.43817689690635        1.58069448946593
H           -0.05805714039269        2.44296498991236       -1.98632152389549
H           -0.41934722100279        1.40282409129743       -3.37368228394887
H            1.25608849884568        1.86658810487159       -3.02902918355871
H            1.88782308059504       -0.67449315973128       -2.93355201629621
H            0.19094796727425       -1.03528965929366       -3.31481611403192
H            0.94766168132017       -1.73279392364532       -1.86844482862998
H           -0.79422147741386        0.07020737773478        0.01304614507108
H           -5.39326484782622       -0.00494466448402        2.67473582416627
H           -3.68888392257715       -0.42115975564438        3.02667293908980
H           -4.88816590471757       -1.71230219190054        2.72248242855354
H           -6.74539040659196       -1.84825746344239        0.71274705212979
H           -7.04192976838696       -0.17268980900202        0.24648020125712
H           -6.78526674584392       -1.39536822258854       -1.01675732381454
H            0.25630669179391        1.97751226058887        0.36626778961246
