42
 energy: -82.985135777077 gnorm: 0.000286122995 xtb: 6.5.1 (579679a)
C           -5.78450915179169       -1.28120485179751        1.81926249249681
O           -4.59217196993887       -0.70635450739699        1.29940076736799
C           -4.59462490257458       -0.44988783124900       -0.04092832077553
O           -5.57405621944652       -0.70785835699907       -0.71963940593758
C           -3.34151670577963        0.13871525113733       -0.49703901102000
N           -2.38387305196629        0.31982316711549        0.47900308363397
C           -1.25184515145504        0.84037380395475        0.18539884288071
C           -0.20626562525398        1.07936553077545        1.25268038258851
C           -0.13675570173698        2.56886566545686        1.59931239307890
C           -0.50878439154786        0.23744650108133        2.49340669985923
N            1.11316217938848        0.70108122406214        0.70708597466137
C            1.35509506164418       -0.51001998213483        0.19830909600940
O            0.57257047047399       -1.43841170848707        0.10902298330235
C            2.75733525759290       -0.64279923031988       -0.31081814148176
O            3.61659679732464        0.37024206205027       -0.34283870575784
C            4.75308341847054       -0.12054818706787       -0.86931830407649
C            5.93169053198342        0.74366190333183       -1.04733950396620
N            4.62918263348113       -1.38075262530886       -1.15965776298113
N            3.36803650700036       -1.70056169867572       -0.80473909096975
C            2.91752773563441       -3.06609472164262       -0.97582766137848
N           -0.93586240601491        1.24765760889701       -1.09348782136189
C           -1.77868158242089        1.10252469195771       -2.16886834105660
O           -1.41438731596868        1.46694144346404       -3.28165671187809
C           -3.12871496595569        0.49017021897021       -1.85992914349178
O           -3.93902399713058        0.33712290416760       -2.78732852523193
H           -5.62930768597055       -1.42079125908949        2.88817520518337
H           -5.98723566811174       -2.24688543080557        1.34495485211833
H           -6.63903005537200       -0.61734691977216        1.65243402148680
H           -1.09572277247848        2.89549912879531        1.99956949298443
H            0.63490441126765        2.74520480578414        2.34597517369594
H            0.09215284067568        3.15244214893776        0.70930469142763
H           -1.47576648791145        0.53667952141339        2.89594295569592
H           -0.55031546622067       -0.81892532332635        2.23233701605737
H            0.26160196906476        0.39229832004764        3.24508772219964
H            1.86318741687060        1.36666533151902        0.76560559094794
H            6.73952756004406        0.17847714364517       -1.50563351771759
H            6.25136764394100        1.12815508383532       -0.07823394963540
H            5.67101533397985        1.59780561690417       -1.67312901125222
H            3.61551166015978       -3.71892498396127       -0.45417655577620
H            2.92298498690051       -3.30087808885583       -2.03984875146502
H            1.91500941644158       -3.16132753768545       -0.56479736394891
H           -0.03309355729822        1.65235616726335       -1.26799383651490
