47
 energy: -80.190912793844 gnorm: 0.000297573188 xtb: 6.5.1 (579679a)
C            4.17217583691908        2.07342013170422       -0.07730889777070
C            4.89635461264001        0.86414268333759        0.58287886025661
C            6.19048422204988        0.57164540607667       -0.14658203857668
C            6.31111029302974       -0.53678520275052       -0.91195621113066
F            7.47870907162859       -0.70298239853688       -1.60840693255347
C            5.36525712997655       -1.56766022944633       -1.01654164862636
C            4.22555308562048       -1.44492398478004       -0.20105719905287
C            3.99834731553189       -0.36303764335563        0.60489095553696
C            2.79223545386059       -0.30903008293117        1.50161750433977
N            1.57025587713857       -0.02341335998451        0.72363652704511
C            0.37879094927339       -0.54120631278380        1.06815083872489
O            0.20995790091402       -1.19130788407014        2.10293341808173
C           -0.75287188966851       -0.24057465600073        0.13908794096940
N           -1.99241068409071       -0.32194571988778        0.71679023082864
C           -3.07855523593778       -0.06808155471106        0.06150816292232
C           -4.38379484956687       -0.21860532980385        0.83719864607849
C           -4.06584663397020       -0.40578711255565        2.33015808194462
C           -5.15598583122517       -1.44483731859340        0.33092643918362
N           -5.21465949082978        0.97398972888514        0.66256457588956
N           -3.05394554988178        0.28122229441502       -1.26965844516358
C           -4.23609647924371        0.55671171377489       -2.08369132612230
C           -1.84848646625912        0.35653870866237       -1.96221620628654
O           -1.81050706132860        0.63805032926326       -3.16735163682948
C           -0.66626959436321        0.09161785605634       -1.19246357470269
O            0.50477962631114        0.16541378169462       -1.88293742892167
H            4.83449381747918        2.93941580269372       -0.10133875431321
H            3.88530663510651        1.82343565111424       -1.09863777042374
H            3.27702093973894        2.33625938562583        0.48690477912711
H            5.12173968881771        1.17624849297834        1.62102886865010
H            6.98195166210924        1.30926427818148       -0.09370865825797
H            5.54579468247484       -2.43711531834550       -1.63226003302346
H            3.51377307795883       -2.26951125997201       -0.18580919673212
H            2.62531160309606       -1.26235696798872        2.02116931260377
H            2.90835492851072        0.47046345668537        2.26763307566167
H            1.68581058275827        0.46861320463372       -0.14819581125379
H           -3.49309336246355       -1.31958325301071        2.48698599068616
H           -4.99652863674000       -0.46736663855241        2.89127696759471
H           -3.48599106685381        0.43909256887947        2.69979468731767
H           -5.48376224385242       -1.30627162752777       -0.69707259921475
H           -4.52610423583099       -2.33270309321322        0.38376900213278
H           -6.03617898010225       -1.60273711327437        0.95258688490600
H           -4.79458564556234        1.75864849402417        1.14289792945898
H           -6.11869453311625        0.80891082257087        1.08036812569042
H           -4.52942149569227       -0.34450116674207       -2.62460201289258
H           -3.97886327192018        1.33234570904240       -2.80622324236752
H           -5.05337885161381        0.90052806120761       -1.45640964604191
H            0.28246409716944        0.38634666731216       -2.80604653537688
