47
 energy: -79.493844716655 gnorm: 0.000305712653 xtb: 6.5.1 (579679a)
C           -3.89163838765538        0.89860968986997       -1.60838433294549
N           -2.77989265443414        0.02511009372423       -1.21839851348339
C           -2.12804369177303       -0.57195879370071       -2.26021785496858
O           -2.45287179813245       -0.48769141138094       -3.43266467761037
C           -0.93920206355973       -1.36473244745369       -1.88885958066181
O           -0.28442335824219       -1.93764287967000       -2.84694035557453
C           -0.43564436748816       -1.31102903333740       -0.55271743996486
C            0.47425272840543       -2.41200862701708       -0.03424463910517
C            0.48150443807478        0.08623349855294       -0.88817720396082
O            0.03530914840028        1.13936371853525       -0.54551421057992
N            1.61354333861415       -0.21218268063735       -1.47868510748960
C            2.64319794493838        0.81718935911377       -1.68118813041108
C            3.79977145666543        0.62352283643233       -0.72820463962719
C            3.57107301905105        0.32819253644414        0.61388914825211
C            4.63383371159095        0.17277860020469        1.49162065079611
C            5.91885737727382        0.32494002243463        1.00087685667799
F            6.94966016292971        0.17632632530187        1.84197181062932
C            6.17960890342780        0.62073009303035       -0.32529687370345
C            5.10554380085310        0.76733716752006       -1.19165877573563
N           -1.35575594925088       -0.87994622998923        0.41242965911479
C           -2.40946116766914       -0.21117455154509        0.10298010491499
C           -3.21166412106110        0.33538078758401        1.27549443599823
C           -2.94040047623280        1.84370767382032        1.38217460388709
C           -2.75194122657621       -0.35767788689521        2.56870224281861
N           -4.63641750489673        0.10327903620937        1.07392658080705
H           -4.66918351694534        0.85674171127318       -0.84874688430664
H           -3.51977193440594        1.91741561467851       -1.71493971770468
H           -4.27652406233691        0.54961365918575       -2.56551245342314
H           -0.70291081061463       -1.77624841726994       -3.72265016464900
H           -0.15562796088951       -3.19917444933196        0.37887805736813
H            1.07942367171235       -2.82843536652370       -0.83530991457120
H            1.11687496682613       -2.02776479018311        0.75481744529967
H            1.82518327733812       -1.14315132157964       -1.79727557334424
H            2.97570961674016        0.74345848879676       -2.71859224325145
H            2.16723117319996        1.78992072160465       -1.52540697091137
H            2.55691910708997        0.20827823688764        0.97476843609848
H            4.46889380006886       -0.06241553903018        2.53496492718526
H            7.19882767481512        0.72858937802939       -0.67300483662440
H            5.28614289408851        0.99448515540662       -2.23542333225032
H           -1.86609178990542        2.02532495611013        1.38674837013743
H           -3.38630721814221        2.38054828222814        0.54787707786106
H           -3.36955581447320        2.22221168089515        2.30859363965666
H           -3.37147464008363       -0.01424335738609        3.39540886872093
H           -1.71055684750925       -0.12064754814329        2.78050517254988
H           -2.85443401032037       -1.43718255970209        2.47376285252581
H           -4.82912907852625       -0.88729651955929        1.12692051230486
H           -5.15243776099081        0.56331708646723        1.81153897323443
