42
 energy: -83.003411726514 gnorm: 0.000710147367 xtb: 6.5.1 (579679a)
C           -5.65758355376088       -2.90430035659625       -1.52335573073903
O           -4.84568076547199       -1.97093208546377       -0.81286085060649
C           -3.63965210681777       -1.71748381553764       -1.33514091687596
O           -3.25170531458231       -2.24702828196642       -2.35916215427778
C           -2.83559361817510       -0.74751105694639       -0.55989882496800
N           -1.61776114783422       -0.51280014140134       -1.10761870802468
C           -0.77757832516832        0.29975638280667       -0.55780970785089
C            0.56015721092352        0.60891701078916       -1.19918126928073
C            0.61930473045585        2.08439269992494       -1.61904499050832
C            0.75330979469348       -0.29985812078889       -2.41338197539426
N            1.66491460758894        0.31579642691529       -0.26507630654597
C            1.97258777717231        1.00438960426272        0.84571538360397
O            1.29146090703111        1.89544205202076        1.35087791500640
C            3.24169584321059        0.56704382745292        1.46517897674862
N            3.79081060581911        1.01265854383096        2.55274339189123
N            4.94710101011885        0.31616342094297        2.72346598070125
C            5.03590188725020       -0.51324534054129        1.72948602831791
C            6.10863599972503       -1.49342072637696        1.45648391929992
O            3.98733549650673       -0.40573926336361        0.89708227816066
N           -1.10513709810198        0.95482132903352        0.60448970664680
C           -2.26201664080061        0.77808389990597        1.22065693409169
O           -2.52130351726556        1.39352250315964        2.35693665471812
C           -1.56134339243060        2.25531862387344        2.97019924158290
C           -3.28444734143290       -0.12311039393702        0.64766411850931
O           -4.37481329743436       -0.27405077297072        1.20865539022841
H           -6.61012571039040       -2.95674686522045       -0.99944429856195
H           -5.18149599918419       -3.88787746924524       -1.53614103061044
H           -5.81135622336486       -2.56878185918330       -2.55190244461933
H            1.58921908345680        2.29787336905787       -2.06453228877290
H            0.47218835136603        2.73957532705778       -0.76310174497984
H           -0.16141772468901        2.28196582850166       -2.35203436377461
H            0.71947785858512       -1.34519869266935       -2.10964999863501
H           -0.04445769777822       -0.12066706511074       -3.13292494475336
H            1.71156847110392       -0.09282844637465       -2.88470979883759
H            2.33560255569940       -0.36809030595145       -0.58044516291032
H            6.51651976146914       -1.32759899953450        0.46012043031048
H            6.89653972015169       -1.39188333931762        2.19879206161227
H            5.70378100224929       -2.50504071752675        1.48952373488540
H           -0.37598860204255        1.55145533205510        1.00924694392771
H           -0.63874763547559        1.71094514741625        3.18522615636233
H           -2.01741587583341        2.59995221129485        3.89677767185764
H           -1.34249408654608        3.10611857575529        2.32123059309207
