20
 energy: -37.575216014996 gnorm: 0.000797040565 xtb: 6.5.1 (579679a)
C            3.78465502198112        0.75132197853153        0.41764728181275
O            2.36677476252901        0.51319567451022        0.29535373500734
C            1.97314600292551       -0.70595334556068        0.07822374351114
O            2.63368835782117       -1.69446017819148       -0.04007484340348
C            0.44260150040897       -0.75908661160990       -0.02964663006468
N           -0.27199424376368       -1.90588824152922       -0.28455333453233
N           -1.49045907273628       -1.58749945581380       -0.31307987320266
C           -1.64575935493672       -0.19949682340368       -0.07468391021345
C           -2.44885379636766        0.05386273236424        1.21123702023300
C           -2.26673006387372        0.50484758877472       -1.29205527176539
O           -0.30702202711373        0.24932318246095        0.10061420874237
H            4.29019215699169        0.39514947132803       -0.48076844236129
H            3.89601897769550        1.82631781635540        0.53216172018131
H            4.16437190034277        0.22184433603244        1.29252235217279
H           -3.45066455692733       -0.34769728824222        1.07912464743803
H           -2.49286736374899        1.12611043779806        1.38664028116094
H           -1.95231106190881       -0.44012180442324        2.04369887128448
H           -1.64603689519203        0.31786494579208       -2.16575552083339
H           -3.26678399128889        0.10834318964351       -1.44921297756037
H           -2.31196725283791        1.57202039518303       -1.08843405760700
