33
 energy: -58.547148043282 gnorm: 0.000351238385 xtb: 6.5.1 (579679a)
C            3.70011885091871        2.80097481914051       -0.36625272472843
O            2.51359107484696        2.02207015108327       -0.26734462469320
C            2.67782942511629        0.68288634919165       -0.33718114429683
O            3.80217923717194        0.19415520457062       -0.46188675363343
C            1.44939424587770       -0.08534974246373       -0.25499629976949
C            1.46515960783703       -1.44941779010969       -0.33318315277702
O            2.59584634480161       -2.15860778636214       -0.47670170897741
C            0.15182042126767       -2.28405718282793       -0.41562201436696
C            0.29979972774526       -3.51912037478974        0.53262804661503
O           -0.21370225661571       -2.54962807534338       -1.62699522410848
N           -0.87178004945716       -1.37177645324119        0.32184099309432
C           -0.82451192940620       -0.02909021201569        0.14990696241216
C           -2.12308540860185        0.74713650546776        0.34063125162847
C           -1.83859451610417        2.25183963731626        0.35244069295774
C           -3.09685680359616        0.40056790272554       -0.80039475600331
N           -2.70240470313848        0.38641194731550        1.63871329590590
N            0.25185843476131        0.63899877813843       -0.09811734918250
H            4.39892390737899        2.54174175510356        0.43442484037088
H            3.40394912989838        3.84497248633346       -0.27671354878333
H            4.18940998272098        2.63430763630449       -1.33050152668091
H            3.37426333269605       -1.55402957753285       -0.50914226199530
H            0.53753887632656       -3.20633841956188        1.54796476624040
H           -0.63632996362934       -4.07348890117047        0.53245160397625
H            1.09202265316672       -4.16158967879852        0.15160379514157
H           -1.79377814526376       -1.78199061631444        0.31096648901676
H           -1.35274386918816        2.55187822504673       -0.57619092789509
H           -2.76774664739201        2.80954342590289        0.46318157219261
H           -1.17887604309870        2.49617371550327        1.18572471906648
H           -3.30782089567293       -0.66820928946732       -0.80795443115050
H           -4.03521524473503        0.93612096610102       -0.66429739229735
H           -2.66638454819801        0.68255042384137       -1.76190397430207
H           -2.91320485208780       -0.60365558836579        1.65434505140691
H           -3.58066937634615        0.87401875927844        1.74855273561563
