42
 energy: -83.588674225782 gnorm: 0.000431527667 xtb: 6.5.1 (579679a)
C           -1.10709450864497        2.90712357349973        1.41499281997515
O           -1.31607950258354        1.74749618615942        0.63533532435948
C           -2.32078091972774        0.88718421388156        1.08888119183070
O           -2.95120623857619        1.19903846188987        2.10325940746081
C           -2.46177989729754       -0.26049161351428        0.26469289375590
C           -3.35307559542658       -1.32579505157949        0.52484007270031
O           -4.14386289174686       -1.41417872149901        1.49452770413055
C           -3.25525094523343       -2.49551987384405       -0.44660295569549
O           -4.18437751904553       -3.30843761918875       -0.64294849325907
N           -2.05467725623098       -2.66035028321321       -1.03963228192646
C           -1.07013635822968       -1.62098753705568       -1.22541631127062
C            0.22462525091899       -1.90084905620150       -0.42995608579703
C            0.00048603602464       -2.46952349667096        0.99078077967780
C            1.07942373068007       -2.88659687650695       -1.24712629437658
N            0.92396229029411       -0.61650463037343       -0.32452991447451
C            2.12696125396939       -0.41483264834803        0.22689361289745
O            2.88331280238303       -1.29290208583804        0.65580232593921
C            2.48182962156831        1.02128098526636        0.26543560368932
N            1.74550220492017        2.02461897605397       -0.13830388120879
N            2.45882027166389        3.16384956879261        0.11199264730198
C            3.57701167954360        2.79312858300768        0.64809176674422
C            4.68825735952935        3.66145337034901        1.10094541072523
O            3.66442957911306        1.45644279360488        0.77630426470636
N           -1.62418741849979       -0.31222900081031       -0.92645310084785
C           -2.33172196805438        0.22482754116930       -2.10233975353256
H           -0.90094088054477        2.65443697135938        2.46298589085889
H           -0.24465741153093        3.42861876918546        0.99522818174842
H           -1.98079911083302        3.57028060547905        1.38528347242181
H           -1.97858708644987       -3.46166107976870       -1.64657313966587
H           -0.56992789861772       -3.39563432021410        0.92095057804140
H            0.95280974742085       -2.68277409287820        1.47655936299217
H           -0.55644088613165       -1.75406470390326        1.59800537475560
H            0.53691105088146       -3.82484994467890       -1.35564785800447
H            1.25575777238441       -2.47344401655498       -2.24012026865606
H            2.03716766211765       -3.09025630006242       -0.76858829245945
H            0.36417362050031        0.19544153461814       -0.59376223386352
H            4.91880959184738        3.46306870650583        2.14718848476663
H            4.40618466574461        4.70454264433861        0.98220249287777
H            5.58504870358723        3.46222218395994        0.51467758348147
H           -1.66808318769676        0.14747658580681       -2.96548423689074
H           -3.25910002368932       -0.32634381260725       -2.31929491069986
H           -2.57871839029061        1.27569651039612       -1.93151623522207
