47
 energy: -80.188155736916 gnorm: 0.000626860498 xtb: 6.5.1 (579679a)
C           -2.87715962961671        3.09684934050078        2.54181164171077
O           -2.47356986026592        1.73725931665473        2.55470070218716
C           -1.86902849548791        1.25791834327290        1.38703800815187
C           -0.77806371711576        1.77743338428337        0.79797253520471
O           -0.15511444439667        2.90431059581472        1.26725926879808
C           -0.18112857168417        1.09914889059583       -0.34247596232807
C            0.95274328253076        1.59301547135051       -0.97581584881003
O            1.53001194866583        2.68862417776361       -0.67789737735023
N            1.42889714682873        0.84068423405684       -2.08540035508243
C            2.84656127638226        0.98966641976153       -2.39421647705387
C            3.70693242431983        0.34954353685011       -1.32483304468045
C            4.16967234119232        1.10313767924902       -0.24721981153587
C            4.92001971780554        0.51506031206066        0.76102881997780
C            5.19329555386532       -0.83745931347481        0.66971394492562
F            5.92504777065225       -1.41725617386386        1.64325959476352
C            4.75167999755007       -1.61866115752150       -0.38180137333319
C            4.00132936348921       -1.01154660436396       -1.38025096160666
N           -0.69808482968992       -0.14938095222493       -0.68307995567894
C           -1.75242917288673       -0.60968631040087       -0.12708954439573
C           -2.18941100926211       -2.01486553234236       -0.52664416789659
C           -2.78928144526566       -1.97621022356159       -1.94066199883398
C           -0.95551695015242       -2.93796465454378       -0.52332427288832
N           -3.19954682393456       -2.53041212001471        0.39553724000875
N           -2.52573422487282        0.07062741651435        0.87376277544684
C           -3.90611388345436        0.37204479565929        0.44217481199956
H           -3.48319951215986        3.25942774929783        3.43646639504960
H           -3.48227736194271        3.32790093795739        1.65566410403792
H           -2.01505323571480        3.77608732157880        2.56671933853782
H            0.59865795066152        3.06825749236347        0.61242847631873
H            1.15357954855699       -0.13642086011150       -2.01487750929570
H            3.03430367832512        0.51647745084480       -3.36295584096509
H            3.07242462974627        2.05821009909717       -2.47506106412522
H            3.93813559272839        2.16161291193644       -0.19682026432392
H            5.29144784213562        1.09022682218569        1.59945326255446
H            4.99077132167097       -2.67328070262573       -0.41796253277153
H            3.64806707247947       -1.60754057667404       -2.21415265211512
H           -3.70331495635620       -1.38305662476010       -1.94902631132641
H           -2.07363721815420       -1.52938531102563       -2.63039438554745
H           -3.02595232621824       -2.98387072540980       -2.28173935499929
H           -0.55529512879412       -3.02296305706275        0.48666032942126
H           -0.18446315464336       -2.52434287275592       -1.17340038678883
H           -1.22576114819022       -3.93210208920261       -0.87695170625593
H           -3.49845079782622       -3.44165025725381        0.07888893286746
H           -2.78861134003142       -2.64724650134536        1.31440493072922
H           -4.43543591495735        0.83242029601905        1.27698421914486
H           -3.91909054531029        1.05451059619083       -0.41621304070986
H           -4.41285376121648       -0.55515197131918        0.17916786885485
