42
 energy: -83.000670431087 gnorm: 0.000524450526 xtb: 6.5.1 (579679a)
C           -6.03411248007618       -0.53028689356721        1.56748345706940
O           -4.76532823677002       -1.06249320578691        1.18306376771874
C           -3.84560252867379       -0.25593041366772        0.69383991508780
O           -4.23294719399947        1.00742188180698        0.63366504474894
C           -3.46011408613076        2.08577632822389        0.11018668994396
C           -2.61407216396552       -0.78966185894926        0.30396833656197
N           -1.65242052162477        0.09944849970007       -0.17173008645496
C           -0.50256160432348       -0.32570445204713       -0.53199015270654
C            0.55560720940177        0.61533172397264       -1.06803653149940
C            0.24802635933892        2.06602492252666       -0.69126029619451
C            0.65040744363289        0.45294732084348       -2.58825253660036
N            1.84748212206889        0.22433313224725       -0.49725347692835
C            2.01892088096817        0.11470794185982        0.83964384338171
O            1.11863025102349        0.17074753823140        1.66020870762769
C            3.43142961177865       -0.12313020017186        1.22293482460903
N            3.90751565711104       -0.33448268583540        2.41020409692269
N            5.25429125768442       -0.48859807082142        2.27216227679041
C            5.51786143628967       -0.36095813127573        1.00906315771125
C            6.83692148858353       -0.43055893847767        0.34412978240254
O            4.40750884311154       -0.13000183948922        0.28947693610698
N           -0.15675097942780       -1.65766019096814       -0.51194884259412
C           -0.97727504190688       -2.65766110073163       -0.06896164792339
O           -0.61135583624128       -3.81960308697651       -0.07171549181658
C           -2.34833032957974       -2.20593341661210        0.41235007042833
O           -3.13088096340650       -3.04516414172919        0.84508485542443
H           -5.91009141537759        0.21510408171335        2.35566607126961
H           -6.61782558891318       -1.37344525148121        1.93321144556350
H           -6.52849432606445       -0.07207285386632        0.70868732219346
H           -3.17512236042376        1.89009621580943       -0.92459618554124
H           -2.56412552882471        2.24603449346325        0.71183433264469
H           -4.10655923514990        2.96229677258772        0.16079446908680
H           -0.66716851671419        2.38435890855146       -1.18640986348092
H            1.06630434319582        2.70847316718245       -1.00992709616541
H            0.11925531766811        2.15480416527506        0.38696446832826
H           -0.30749844382753        0.69879018148288       -3.04373822757674
H            0.91133560502603       -0.57288452210784       -2.84320916319873
H            1.41220198297572        1.12085725479442       -2.98545021717048
H            2.65473456565557        0.27336842014325       -1.09409486875985
H            7.60538634286779       -0.66885196476029        1.07567400429016
H            7.06388090175215        0.52644428917952       -0.12559158175689
H            6.82116196972842       -1.19153753224843       -0.43540748088978
H            0.75977279152403       -1.92074448798267       -0.83916212864818
