47
 energy: -80.236705187839 gnorm: 0.000328438263 xtb: 6.5.1 (579679a)
C           -4.87164092354620        0.99282486109696        0.92750213602951
N           -3.49846089833536        1.20770548924256        0.46470823210776
C           -2.80108561438633        0.26350799160956       -0.24231806537686
C           -3.37412257138811       -1.11220901225932       -0.56319688752298
C           -3.22357855604208       -2.01909848769307        0.66793787938462
C           -2.58765408733082       -1.72313757122601       -1.73492261594592
N           -4.78448493286610       -1.01064082461228       -0.92696925253715
N           -1.58397220243560        0.47376363222703       -0.64121157639796
C           -0.96861164136938        1.66673521560897       -0.39341799489911
C            0.42253729923121        1.83526551296386       -0.88347735003050
O            1.05825459705707        2.87792228603996       -0.68760518900427
N            0.91434250211119        0.78433902480666       -1.54741478430338
C            2.27190783791324        0.77308007955919       -2.08592891278296
C            3.24209894909094        0.21685919790453       -1.06587822295429
C            3.78399321687431        1.04638606285090       -0.08689885222573
C            4.65408769011920        0.53486239220994        0.86330879266686
C            5.00298052251269       -0.81616415839586        0.86108137940953
C            5.91710440004833       -1.37313772088649        1.90944364014380
F            4.18844840734006       -2.16710242727538        4.27601264930431
C            4.45782393433206       -1.64070502216964       -0.12266413281912
C            3.58608101560161       -1.13155205158482       -1.07452233897271
C           -1.61112176795832        2.67150898396821        0.27914113284740
O           -1.05088775932585        3.86168541104853        0.53595871532861
C           -2.97622711971443        2.47279610502424        0.74712543263939
O           -3.63843065472289        3.31276642366144        1.34579447218368
H           -5.56511851110273        1.15741334460530        0.10441244664026
H           -5.08041269642396        1.70295218545361        1.72791061567511
H           -4.99280216735716       -0.01893039138887        1.29870279468848
H           -3.56839806798290       -3.02232607177362        0.42259353311065
H           -2.17577697861063       -2.06958559340069        0.96365898484050
H           -3.80851725678789       -1.64870752431811        1.50808545023768
H           -1.54603868467377       -1.88031095026962       -1.45824365231806
H           -3.03131544941867       -2.67888124760119       -2.00736644710292
H           -2.62389364517774       -1.05876119344841       -2.59623828132029
H           -4.86508530539686       -0.60675226793255       -1.85086096271353
H           -5.18159535158515       -1.93831780564743       -0.96992575828021
H            0.33073672688241       -0.02900162270621       -1.67178566817563
H            2.53553559636410        1.80302890941649       -2.34691079273536
H            2.26609232883194        0.16328706491223       -2.99192181851966
H            3.52435852049748        2.09987461920756       -0.07460192546610
H            5.07422903862162        1.19951160124757        1.61206070958618
H            5.32324229329894       -1.68512809847062        2.78506025209785
H            6.45523423524284       -2.24418583889323        1.53570463562016
H            6.63787954669340       -0.62391981710842        2.23770624342462
H            4.72104471431927       -2.69318154488600       -0.15467899905115
H            3.17666110626156       -1.78714992516009       -1.83512312821976
H           -0.13544063527955        3.86081077456371        0.15042948172265
