43
 energy: -83.139256453309 gnorm: 0.000379528489 xtb: 6.5.1 (579679a)
C           -5.27521390746750        2.99838770945461       -0.13060447677613
O           -4.19509221560218        2.05733544684647       -0.07040493990014
C           -4.24321990055436        1.04307672961033       -0.91844600669450
O           -5.14383779394850        0.88417317381668       -1.72348061169441
C           -3.09945971378879        0.10706641676049       -0.80471444764554
N           -2.13577960153864        0.40115883293833        0.12795749339750
C           -1.13209729153229       -0.39324523864544        0.25840666680462
C           -0.09916203855878       -0.11371944227946        1.32736620874695
C           -0.28244337844827       -1.11974245028893        2.47020093198447
C           -0.22102781894577        1.32948220631453        1.81527711174272
N            1.23640632617664       -0.31288104890020        0.70655744758099
C            2.34883271790030       -0.19869857795443        1.40671513505683
O            2.50515571191802        0.06635584376712        2.56602830858568
C            3.66593315344605       -0.53791918568649        0.54377607123722
C            4.24636379893506       -1.81532152527596        1.15110568142348
N            4.50197329173630        0.58972995732659        0.60071157600730
N            4.66639990507519        1.06553227857492       -0.56197224431510
C            3.97901040245363        0.27392256529131       -1.43775126506396
C            3.91127407105035        0.46931021683312       -2.88117549132141
O            3.37394190364191       -0.68241535758521       -0.82287151050154
N           -0.99333253541953       -1.52715351670111       -0.48996651890306
C           -1.88789501514987       -1.92922355584723       -1.47214264653001
O           -1.69795062250741       -2.94389824490133       -2.11179835899441
C           -3.02406489089870       -1.00700731945977       -1.60660069026657
O           -3.93097123781249       -1.32683430745700       -2.52304068383534
H           -5.04724873937303        3.77665240664636        0.59474077827379
H           -5.34556149528989        3.41981501053175       -1.13573195923440
H           -6.21469377679139        2.50210681471631        0.12292055176065
H            0.41184387714175       -0.90358745140427        3.27981936128215
H           -1.30127527210876       -1.04837028027191        2.84838120003262
H           -0.10544875405733       -2.13039675872503        2.10816892130589
H           -0.05748420529572        2.01618501707858        0.98668847301322
H           -1.22315522591566        1.48699287380773        2.21092917193614
H            0.50849304084459        1.52544204832301        2.59826719541515
H            1.28252137630990       -0.53621328563100       -0.27249310103660
H            4.42977693390875       -1.64367201156270        2.21011457913744
H            3.53330979559963       -2.62560958096532        1.02107531533378
H            5.17543874733533       -2.05670692254902        0.63945500728651
H            4.92579234907616        0.47507077580961       -3.28798269441556
H            3.31678326896691       -0.31035898299869       -3.35109307805349
H            3.48406777197517        1.45287255112711       -3.09256987137729
H           -0.19800149403646       -2.12909386276693       -0.35254953250389
H           -4.64889951844936       -0.64859996771441       -2.54727105827966
