47
 energy: -79.488095025031 gnorm: 0.000416771711 xtb: 6.5.1 (579679a)
C           -4.79032677528284       -1.21426369617440        0.69159270856292
N           -3.37548614111378       -1.34495108154991        0.32248546554848
C           -2.56108287545949       -0.26454526012987        0.12859524980341
C           -3.04620442564406        1.17250383472509        0.26233514855882
C           -3.75858004703507        1.59010023051314       -1.03300134825005
C           -1.83057638829534        2.08861954403266        0.48442975897113
N           -3.95860451169311        1.30148500102602        1.39116031240344
N           -1.31598416688568       -0.40360851429399       -0.21808010178599
C           -0.76864453034639       -1.64492074062854       -0.36362427295649
C            0.65174895160934       -1.70065664156053       -0.73748322965415
O            1.28546764403078       -2.74205404472689       -0.85651117501149
N            1.21127639087630       -0.47293014756308       -0.96175540615962
C            2.56630871211630       -0.32900150580533       -1.32939706718396
C            3.51073595860677       -0.03411335196518       -0.03694257693523
C            3.27992413296725       -1.19787173049860        0.95048765331256
C            4.88201432880271       -0.03360109254404       -0.56320100400823
C            5.62848658334331        1.10426476170413       -0.66085841961880
C            5.08853033392470        2.30482183566122       -0.18294462770284
F            5.80871775858420        3.39194784188198       -0.27354133169003
C            3.81915515293923        2.39147988268338        0.40277080832039
C            3.06795287182890        1.25769050637569        0.50295797164751
C           -1.50736198065082       -2.77968217393828       -0.14311695244315
O           -1.02343422216116       -4.01798679180118       -0.24715403799362
C           -2.91518040788657       -2.66040284697367        0.23373020809339
O           -3.65392301143280       -3.60808710996659        0.45266442397196
H           -5.30633499443288       -2.12986922939851        0.40139601213534
H           -4.87284871770133       -1.07078421265022        1.76792121592154
H           -5.23365090738934       -0.36669715612691        0.18150937147448
H           -4.67568020644692        1.02281249671632       -1.18271590047683
H           -4.00834276655200        2.64875930114276       -0.98192949405878
H           -3.09953051456090        1.42524371889153       -1.88413355442975
H           -1.25884468387536        1.75089750229279        1.34680791786601
H           -1.18057500615011        2.07824844185403       -0.38838305587661
H           -2.17201874740094        3.10695796990872        0.66142374804967
H           -3.43341756731827        1.22001064502032        2.25161800400293
H           -4.37338362333493        2.22306473003391        1.37232370267965
H            0.63441209141831        0.34192892147602       -0.80307790418770
H            2.92324206075132       -1.26405243190648       -1.76532580431354
H            2.69058547156942        0.50416122430670       -2.01783025958807
H            3.45969194054171       -2.14915525825367        0.45301613485753
H            2.25517528068002       -1.16743048069824        1.31354185537322
H            3.96214724262715       -1.09081171768149        1.79154355422273
H            5.28282447298711       -0.97947713616733       -0.90981234516313
H            6.62938985327040        1.09788266199270       -1.07523725617983
H            3.46779877402690        3.34461032170272        0.77766179268710
H            2.08600234646510        1.29275699652210        0.95983702756122
H           -0.07157013491581       -3.99329101745554       -0.48575192035819
