46
 energy: -87.046484809916 gnorm: 0.000564312100 xtb: 6.5.1 (579679a)
C           -6.06602024255961        1.91512441140278       -2.10161975417124
O           -5.21635388476956        1.34007660241454       -1.10084786347865
C           -3.96816428253513        1.03492709498557       -1.49505517982457
O           -3.57763767931376        1.23347453645654       -2.62125701715550
C           -3.14248716563029        0.42891437443130       -0.41630754394285
N           -1.88589827197751        0.09065473821043       -0.82450856590077
C           -1.03742618761913       -0.47927190168517       -0.02523604956511
C            0.32877213039370       -0.82487355788260       -0.63431154938708
C            0.23269248855761       -2.27988878524168       -1.12465417540942
C            0.55711458750183        0.11000149004715       -1.83951879461621
N            1.36275067514325       -0.62282480095878        0.37866541770065
C            2.78292889074613       -1.16235419929350        0.04591283967581
C            2.97405397436812       -2.40286192374433        0.98346630862305
O            3.04813422884653       -1.38168382844147       -1.20638505982899
C            3.72496228167858       -0.06445347296654        0.63669859172281
N            4.86224521929061       -0.26096761980187        1.22679152714203
N            5.43094666684986        0.98168139640400        1.43408709168166
C            4.60122356262027        1.84208946806997        0.94893981783506
C            4.74522000376728        3.31818953992544        0.92234998615698
O            3.50546779067640        1.25498486130308        0.42827122433881
N           -1.38323510656271       -0.78871457584723        1.26676260533336
C           -0.48266328333597       -1.49468297204992        2.18210692300526
C           -2.60886999075711       -0.43095821629804        1.81152673874730
O           -2.87910971392949       -0.66244950103048        2.98579622920040
C           -3.53349538091140        0.20872332574463        0.87829513869763
O           -4.72589586628002        0.52170961844652        1.41503468212100
H           -5.63581146095361        2.85156728244898       -2.46315361126408
H           -7.02714956642828        2.09838841053386       -1.62821876945366
H           -6.18063216031237        1.22097982840862       -2.93715718703726
H            0.08276242802405       -2.96926090903589       -0.29522346358664
H           -0.61377201137150       -2.37185197652847       -1.80549587013441
H            1.14297357583624       -2.55754087345319       -1.65488069425163
H            1.53400850174502       -0.09263530658487       -2.27637295571547
H           -0.21142445617144       -0.04638707494964       -2.59569379772625
H            0.52293409912801        1.14977008510680       -1.51522648983270
H            1.44484440160099        0.38305505393463        0.51485629493798
H            2.32546778540401       -3.20893587859898        0.64762798423515
H            4.01068892075100       -2.73317188443018        0.92025730874692
H            2.73548588289527       -2.14909530850972        2.01474937301718
H            5.64309784902164        3.60500048521770        1.46386042935528
H            4.81660490493551        3.67311662726366       -0.10576833747765
H            3.87823311170190        3.79010851057352        1.38257677372246
H            0.04796210043031       -2.27984069293094        1.65319574795159
H            0.23747649672610       -0.79485229532071        2.60442782489548
H           -1.07871567806518       -1.93279866017433        2.98218454383100
H           -5.32429316913794        0.93981747444044        0.77502932706038
