47
 energy: -79.450832505032 gnorm: 0.000737613154 xtb: 6.5.1 (579679a)
C            7.19902854726012        0.22129900353605       -2.55192687282320
F            5.96331345121134        0.79957687329936       -2.08914845043076
C            5.08199597326941        0.30519325668484       -1.02289307539065
C            4.04190836076428       -0.49789733114950       -1.41400439800458
C            3.19589204327823       -0.93023743945269       -0.39994446207639
C            3.42006239853348       -0.55450602261931        0.92546757671343
C            2.48202878533040       -1.03315751574391        2.01393829024743
N            1.20131156452917       -0.34902177419002        1.93171017933367
C            0.21814860283732       -0.84106106577946        1.14417766148481
O            0.34352718727830       -1.89397302588379        0.53057017137649
C           -1.04335266910856       -0.03737634388801        1.08000965313225
N           -1.99452400440199       -0.57550826762834        0.26106935635240
C           -3.15019133135475       -0.01703921949976        0.08045603076188
C           -4.07263163378514       -0.69972344892991       -0.92342804129955
C           -3.49846883525617       -2.08067704727085       -1.28041211538402
C           -4.15233684334269        0.16036590158156       -2.19300856095032
N           -5.41211172463736       -0.85627897001171       -0.36117096242154
N           -3.48472323419168        1.15478414923612        0.71074024800435
C           -4.76345253979593        1.85583237163280        0.56056291872664
C           -2.58776765335368        1.79808135932687        1.53966563037577
O           -2.85060035250044        2.86518372725468        2.09244186724822
C           -1.31003799156534        1.13707310272334        1.72185495677906
O           -0.45066538617805        1.77349129966734        2.54397245846261
C            4.50301929674289        0.26333503527252        1.24255564007723
C            5.37140961157441        0.71282548145532        0.25246852843656
H            7.86707586933122        0.21471960600468       -1.69621578844075
H            7.51637247670168        0.89672202061241       -3.34021948028957
H            6.95051821426498       -0.77290107812839       -2.90980653693502
H            3.89253485683860       -0.77642920432517       -2.44739756614867
H            2.35673409126769       -1.57035704293899       -0.64736162510354
H            2.91164234423509       -0.83856876611983        2.99798109123128
H            2.30126513688226       -2.10679219559156        1.89965019627916
H            1.14559161200900        0.57226064470988        2.33359945246613
H           -2.51820911074772       -1.97748433697754       -1.74380580324182
H           -4.17044941973021       -2.58151631031390       -1.97518625614384
H           -3.39879652163803       -2.68918030576806       -0.38255040973366
H           -3.15109944545457        0.33943944522679       -2.58311862459995
H           -4.62601517186182        1.11808204092489       -1.98739818346137
H           -4.73663302624973       -0.36022378829571       -2.95059184575178
H           -5.38259020375419       -1.52118338804365        0.40024272214671
H           -6.02506294228934       -1.22817968607604       -1.07366050447297
H           -5.05400656279171        2.24157172271903        1.53841210190293
H           -4.63449582143831        2.69196364669683       -0.12718162125761
H           -5.52343739935293        1.17273258515471        0.19245480718391
H           -0.87597561452557        2.59438498210005        2.86118627722040
H            4.68569356007264        0.55528312175707        2.26930091251450
H            6.21856245508491        1.34507219704417        0.47562345587976
