42
 energy: -83.616958282046 gnorm: 0.000328058707 xtb: 6.5.1 (579679a)
C            6.75321367495280       -0.08224497977918        1.94289345428563
O            5.74941039771297        0.63288690611182        1.24168995035349
C            4.57008993277970       -0.02562166088781        1.06560754296759
O            4.42761316193453       -1.16198682529037        1.50834196891586
C            3.55848164088312        0.71804681458346        0.33652873713907
N            2.38091051556669        0.00350882674431        0.17644448565299
C            1.38839449209512        0.51932892985061       -0.44958803324618
C            0.10367104291259       -0.24844574669921       -0.68675859524030
C           -0.08727107277129       -1.30332782308927        0.41391951565722
C            0.20387629939940       -0.92493589860925       -2.06227696208863
N           -0.99480340576285        0.73963950709374       -0.70820788420326
C           -2.32132125787599        0.17096026930604       -0.84153290016192
O           -2.87173046325465        0.28934609645998       -2.14920683779702
C           -3.51488644440677       -0.87547876923307       -2.62194633889526
C           -3.10102234811946        0.12640772143495        0.28536452227773
N           -2.63476460749364        0.21441784899185        1.55611286147991
N           -3.72387537188055       -0.01596348253319        2.37540015871444
C           -4.74513644064070       -0.23243363038104        1.62788468765967
C           -6.13796586960764       -0.53025715397573        2.05848820322004
O           -4.45649183925021       -0.16673921681954        0.28215640649032
N            1.45197803670691        1.78618976405046       -0.99150652877010
C            2.54284797340793        2.60136792511374       -0.90848512862360
O            2.51536571425252        3.72408890859579       -1.41803123529368
C            3.73409974778017        2.03110917835329       -0.17177685631959
O            4.76039949890654        2.73472393478205       -0.06483673297592
H            7.01770550769028       -1.00304266690188        1.41277010690180
H            7.62585765906880        0.56676418387248        2.00633664944876
H            6.41464346950708       -0.34361919605775        2.95093951217781
H           -0.29352050525143       -0.81636631183606        1.36842803610569
H            0.81520152587486       -1.90779578750558        0.50743661194854
H           -0.92678845405858       -1.95108551790450        0.16477597414365
H           -0.68830698177314       -1.51977176286703       -2.25306822573153
H            0.29513960762238       -0.16927747644317       -2.84229347230306
H            1.07452942095078       -1.57936343103699       -2.09743258031624
H           -0.96958509155729        1.22794696667382        0.19204837247862
H           -3.71406591602069       -0.73528338818311       -3.68776463653513
H           -4.46889529396531       -1.04733165780453       -2.10374808454956
H           -2.88685386018631       -1.76880241043021       -2.49175050455703
H           -6.19443570964830       -0.49317148359150        3.14469766476290
H           -6.44596917069119       -1.52141318898713        1.72128307626147
H           -6.83549858724629        0.19722031074553        1.64055557713466
H            0.62975737144065        2.13980237403682       -1.46412353860806
