43
 energy: -83.128981129105 gnorm: 0.000406436880 xtb: 6.5.1 (579679a)
C           -6.03805885261595        0.39008422879441       -0.85834485359236
O           -4.96682891992449       -0.11815010184508       -0.02286699601922
C           -3.75240665599496        0.08970148042490       -0.39008113546537
O           -3.31638213951999        0.66391024615827       -1.33189893273484
C           -2.73151515024272       -0.61564346585346        0.69619638812254
C           -3.40625512152948       -1.85305943444554        1.28369164692421
N           -1.59162940978151       -0.95024289615113       -0.08238533560972
C           -0.63086002371922       -0.12419756886055       -0.23140662400637
C            0.50024073524510       -0.43138166741988       -1.18292860958067
C            0.56644049700879       -1.93107359748948       -1.48271677436520
C            0.23192944610754        0.38525657667276       -2.45822690536436
N            1.73717716320722        0.00885560493238       -0.53543607287056
C            2.94046759304704       -0.01610152767367       -1.17420859066683
O            3.10328797503006       -0.19624082675770       -2.36304755256218
C            4.04080677747790        0.23118603863168       -0.21318671313955
N            3.92097518677679        0.32936272514911        1.07778551591893
N            5.17233193160649        0.52595415945973        1.57366834412258
C            5.97866653644440        0.53362599172222        0.55332321407971
C            7.44700565233932        0.71241934114320        0.56344929820886
O            5.32238515503428        0.35001720874637       -0.60109074870317
N           -0.57579965177411        1.10895282411703        0.40053857613982
C           -1.46396903142640        1.51090895144428        1.34171309316501
O           -1.41390088936470        2.53685775224585        1.97958347908361
C           -2.56480381623330        0.52405715325344        1.57312628727795
O           -3.39697072745900        0.78349826883749        2.50463457734174
H           -6.09690509174656        1.47104109848760       -0.73254572453652
H           -5.83812477862704        0.13820194004353       -1.89964741819174
H           -6.94334157828216       -0.09385144744548       -0.50075877515709
H           -3.70792843127445       -2.52078502175635        0.48019146459499
H           -4.27422899484458       -1.56383044814755        1.87067810653775
H           -2.68691124594729       -2.36244617637436        1.92230916856293
H            0.73612459166760       -2.48680058357464       -0.56247370511981
H           -0.37304450597767       -2.25619957833163       -1.92589646492573
H            1.38098180998116       -2.12742578220558       -2.17794381810108
H           -0.78149977783430        0.18468352982597       -2.80310502051934
H            0.93806313623926        0.10532126808949       -3.23714881681761
H            0.33279273952436        1.44793427499528       -2.24714759216555
H            1.76187104525175       -0.01180925546215        0.47303595565788
H            7.92813509620400       -0.14523469165821        0.09329103573513
H            7.79602720763376        0.81207046153148        1.58836501243526
H            7.71680234647681        1.60401507388486       -0.00296564905405
H            0.20887146729924        1.72191290372712        0.21417297352309
H           -3.21001729548472        1.63464496913366        2.96361069182957
