16
 energy: -33.370217233171 gnorm: 0.000343956338 xtb: 6.5.1 (579679a)
C           -1.37974563226778        1.16119887100715       -0.66186515985079
C           -0.64295987117807       -0.05472265031564       -0.07541564809261
C           -1.42151009230555       -0.69325578810411        1.08697700131754
N           -0.34955022871555       -1.00730729096670       -1.08010130314313
N            0.89592874637432       -1.15163946463541       -1.20357166892481
C            1.49495043149096       -0.31026725121715       -0.29565232479848
C            3.00194971697195       -0.17920093416876       -0.11715209192340
O            3.74085911029388       -0.80935896316130       -0.80516092217098
Cl           3.45265054191210        0.89837222640850        1.10028143425022
O            0.64682404577361        0.34378212985468        0.37853741053199
H           -1.53006978113999        1.88977360773135        0.13112138846410
H           -2.33739833654513        0.82908686714911       -1.05559948225937
H           -0.77545105372216        1.59370913866305       -1.45638873047213
H           -0.85363453453321       -1.53598967779950        1.47515885118425
H           -2.38624060820462       -1.02910648835977        0.71451141950960
H           -1.55660245420481        0.05492666791454        1.86431882637800
