42
 energy: -83.580989762887 gnorm: 0.000623744874 xtb: 6.5.1 (579679a)
C           -3.54046688517125        2.69404872420970       -0.60316478718521
O           -4.10814696853753        1.39144259061881       -0.60007875031140
C           -3.93845661484658        0.65359865433858        0.57841796785116
O           -4.97685201494151        0.80419962352045        1.48334775237086
C           -6.05304388866344       -0.12161949343652        1.36474468057757
C           -2.79815816659313       -0.10206682376281        0.79471571720037
N           -1.80314070441710        0.04148098064971       -0.17368170087619
C           -0.68746080149136       -0.60153843749010       -0.04967323115119
C            0.38681915193962       -0.43525330071600       -1.12264878443847
C            0.62443850169048       -1.77234048450695       -1.84484732274360
C           -0.09023675805771        0.60425650497592       -2.14261503933057
N            1.62078848162334        0.09751188107121       -0.52990751290296
C            2.62691436620036       -0.69445294714351        0.02755490843066
O            2.43263328453237       -1.84915062427894        0.46825921298962
C            3.86619696710955        0.01253926715688        0.09278350901188
N            4.09137623890503        1.25545539160247       -0.35206712353118
N            5.40924679939868        1.52315656135902       -0.10081832896510
C            5.91600347445420        0.47536094974322        0.46262616153451
C            7.31923524435918        0.29373998045732        0.91078981889679
O            5.01928835075635       -0.52666056605953        0.62818949264031
N           -0.43443131729337       -1.42552279296484        0.99718717940601
C           -1.35250490772184       -1.68965442360395        2.02079421928717
O           -1.00467040819558       -2.49313109684600        2.92449460707421
C           -2.62557202985945       -1.00354774074168        1.92517734177777
O           -3.54982436992474       -1.20784324177537        2.78557639984614
H           -3.79043974419988        3.15465615406876       -1.56079685038739
H           -3.94807618151616        3.31197078837426        0.20744850499599
H           -2.44740431945022        2.64602070928175       -0.50343203074211
H           -6.82200675602113        0.18433224800079        2.07667660791553
H           -6.47755759026888       -0.10869420806603        0.35303516373951
H           -5.72240932002632       -1.14070664049151        1.60485520436889
H            0.88082234258852       -2.56322964106930       -1.14262771905206
H           -0.28326414243116       -2.05833571654524       -2.37564701156968
H            1.43355181723093       -1.66807617628816       -2.56620875768293
H            0.64846422403889        0.72334756283990       -2.93356581448851
H           -1.03310296787853        0.28440565998644       -2.58461939281445
H           -0.24921809442777        1.56663398576731       -1.65613696097648
H            1.98148761775006        0.90918268277345       -1.01377392619850
H            7.35399170401982        0.06461637652384        1.97620485943281
H            7.87996988604006        1.20576583601247        0.72082172936316
H            7.78592657833762       -0.53216815872658        0.37322026336820
H            0.45928992095432       -1.90373159882019        1.04599674326499
