20
 energy: -37.628682127738 gnorm: 0.000933488229 xtb: 6.5.1 (579679a)
C           -3.38051303871380        1.21766623294728       -0.73190751444975
O           -2.84598931570287       -0.05689515107446       -0.31109745587957
C           -1.60859298041221       -0.24148930212086       -0.10948784450229
C           -1.15870716360689       -1.57663461506848        0.31180468563760
O           -0.81809462976228        0.77844710501931       -0.29282196598731
C            0.52655917861834        0.82392538417280       -0.15934222494880
N            1.23808411369195        1.87176306290059       -0.38305300410732
N            2.52485637966413        1.49395243897677       -0.13962762502114
C            2.50583091313101        0.24879421536947        0.21302783507535
C            3.64180220044996       -0.61674020228529        0.58377179852024
O            1.24037138299614       -0.24403103549910        0.21973739325502
H           -4.42184557771859        1.02866619400923       -0.98399279378535
H           -3.29669667162155        1.92254807917985        0.09584115766827
H           -2.81953174575445        1.57822233234225       -1.59387401033918
H           -2.01358793512356       -2.24381138575044        0.39884940463825
H           -0.44311737865083       -1.96664890159608       -0.41421461121923
H           -0.63389313454841       -1.50116891409187        1.26556062215355
H            4.56298227248677       -0.03888375767760        0.56108372255965
H            3.71477470092869       -1.45266158717791       -0.11235179623491
H            3.48530842964824       -1.02502119257528        1.58209322696677
