43
 energy: -83.177187460823 gnorm: 0.000757383200 xtb: 6.5.1 (579679a)
C            5.34255336184488        2.59361032100683       -0.35201300459975
O            4.20601056067923        1.71969787314754       -0.37284224577505
C            4.30086779768584        0.60528119237377        0.33324675741139
O            5.28986335309789        0.30129255495563        0.97682017493480
C            3.08952528658448       -0.24746823103369        0.28094742949294
N            2.03402477874710        0.20244507527023       -0.47589180846529
C            0.96687701905465       -0.51159908202798       -0.53311932409572
C           -0.18078746220327       -0.07157411627163       -1.41495240966599
C           -0.22291486555888       -0.94755502972248       -2.67041884941442
C           -0.05062006635466        1.40897368620840       -1.77661666448561
N           -1.45458783048293       -0.28199340379688       -0.69698892954054
C           -1.73701334888936        0.19967148769957        0.49005841236504
O           -0.81534033846326        0.84337007582568        1.13955631659568
C           -1.04721150287866        1.43967089629142        2.42789157775105
C           -3.06168272901773       -0.03572786699021        1.00502528588641
N           -3.58776025712267        0.29505628608113        2.15332002728628
N           -4.85183020046672       -0.15789251242644        2.15030743328314
C           -5.04740555905834       -0.74624323781904        0.99922806751453
C           -6.27795550564376       -1.39266168239964        0.50889007357282
O           -3.94970176390460       -0.70040104719055        0.23701162383113
N            0.83970392855331       -1.70342261577344        0.11861461751564
C            1.82463440680192       -2.26151198475897        0.92009411013909
O            1.64042729576198       -3.31753290409594        1.49169388121921
C            3.03861570287677       -1.43454475229631        0.97184630608788
O            4.03539862322051       -1.90618349238525        1.71387604401766
H            5.08430485632815        3.44999097494563       -0.97127671294143
H            5.54824192089123        2.91046027574287        0.67286395178357
H            6.21625627178708        2.07743060863093       -0.75609952673627
H           -0.36517978796501       -1.99143707242567       -2.39789642557521
H            0.71600211271898       -0.84767207757411       -3.21317258617958
H           -1.03998377809013       -0.63169844472599       -3.31600834241479
H           -0.91527897694044        1.72368617362831       -2.35617985547927
H            0.85347026357840        1.54839423830740       -2.36718997364687
H            0.02254593565188        2.01441117558258       -0.87582061301788
H           -2.19804623731493       -0.75583200484621       -1.19081110434765
H           -0.12091737269471        1.95102453164727        2.68297821893025
H           -1.27853600557339        0.66448495582535        3.15978087865977
H           -1.87530831384986        2.14658857630235        2.36442789532465
H           -6.03965251526206       -2.36683766686263        0.08380659030186
H           -6.71955198823774       -0.78363214359731       -0.28140251766939
H           -6.99035003740213       -1.50078291977044        1.32383601058701
H           -0.02113502366350       -2.22135519603506        0.04377166398561
H            4.79942799116368       -1.27998347464968        1.69665854557680
