33
 energy: -58.509972895583 gnorm: 0.000848803829 xtb: 6.5.1 (579679a)
C            4.78887229196686        0.03814164587573       -1.17063707131236
O            3.66917615234839       -0.52131470873200       -0.51392303067322
C            2.51341051656501        0.29902439794464       -0.52282059907806
O            2.57691702589853        1.40647071722425       -1.11411685896309
C            1.45178681408399       -0.26626256168648        0.15864113901199
C            1.43983829464893       -1.58301842414394        0.83164931392622
O            2.55152561100625       -1.93738082823883        1.63630998103019
C            0.30979246720828       -2.32392111501018        0.84521101665575
O           -0.06518344397542       -3.39487168600043        1.39010907618468
N           -0.77566696280643       -1.64221570566098        0.01521174976905
C           -0.92357691241841       -0.30496982947575        0.13612534185460
C           -2.33333633217455        0.28647298401950        0.12749841328625
C           -2.57246802651219        1.01755568791601       -1.20184718798505
C           -3.41292553294141       -0.79609157099796        0.28861483129325
N           -2.47114813659373        1.24125916654032        1.23193782330574
N            0.18233162509029        0.40806680209049        0.16580060319559
C            0.21948731646425        1.86765661525489        0.22179748374757
H            5.60124344156563       -0.68758436792284       -1.10672571365375
H            4.57200324052162        0.24246573855312       -2.22703074204888
H            5.10446622676034        0.97551778942578       -0.69519959938846
H            3.35859238951567       -1.78477699848803        1.12143468765162
H           -1.62597161423962       -2.18318718846213        0.06509468276481
H           -3.60182180051009        1.36990096390653       -1.24482174813509
H           -2.40176595669751        0.33717185026458       -2.03578950704933
H           -1.91168564389187        1.87573183176495       -1.30642018257614
H           -3.24158191984311       -1.38898970577274        1.18600966765332
H           -3.45221943300956       -1.45193195762021       -0.57992531620073
H           -4.38015065429638       -0.30633127254893        0.38609671995072
H           -2.56547324321034        0.73696650765286        2.10408094770738
H           -3.32343844039165        1.76441070681023        1.09806567411219
H            1.09826248306952        2.17741034306564        0.78699744284370
H            0.29273833341179        2.27541081931167       -0.78783733660116
H           -0.67203117661520        2.25321035313887        0.71040929772129
