42
 energy: -83.001694637522 gnorm: 0.000384911377 xtb: 6.5.1 (579679a)
C           -6.03074561722155        0.31686614491555       -0.99192839327232
O           -5.07404548576354        0.01458911100411        0.03690679713895
C           -3.80185334387770        0.13208163227163       -0.27431433782292
O           -3.37393379200800        0.48329465831476       -1.34145293776041
C           -2.87738349396476       -0.20465677931289        0.93335717133681
C           -3.55356254895386       -1.15186664843453        1.92365333556995
N           -1.71033071001320       -0.83652848578020        0.36261530459386
C           -0.73613502086692       -0.13670604119397       -0.04384164102365
C            0.40414253406630       -0.78452213744594       -0.79872381807077
C            0.40430060614408       -2.29815516600620       -0.57016797413939
C            0.21764763672154       -0.44558986925012       -2.28566801269025
N            1.65039049268139       -0.20152131140475       -0.29221364943371
C            2.86624096963703       -0.50342519546594       -0.80813749578636
O            3.06809781560336       -1.14512158265993       -1.82108818799110
C            3.94566728025434        0.07763292420629        0.03008510819366
N            3.78087353638243        0.74625955713465        1.13225556906828
N            5.02336538220402        1.07534023396096        1.58139679532181
C            5.86831451537457        0.58443961273149        0.72520453687151
C            7.34464341426182        0.66892884356096        0.76345072419393
O            5.24828440155439       -0.05715171683435       -0.27574386782626
N           -0.65061740708671        1.24262070418624        0.10884059419215
C           -1.48867737591290        1.97671230578263        0.89179825265791
O           -1.35284407353841        3.16680945099662        1.06153929343878
C           -2.60108745537432        1.15364058472374        1.55515571437674
O           -3.23620173729669        1.58889733571797        2.47881477302912
H           -5.95233133950438        1.36936022309865       -1.27042514042049
H           -7.01035186840347        0.10317669679198       -0.57104968134391
H           -5.84276797378608       -0.30949255134990       -1.86564047953761
H           -4.41220702910475       -0.66274481373699        2.37953225072941
H           -2.84131304698211       -1.42276778171332        2.70072323746809
H           -3.87940227852445       -2.05224553806624        1.40834395358381
H            1.21256205139588       -2.75772689748401       -1.13574664401457
H            0.53698462813139       -2.51563603277126        0.48817915297547
H           -0.54672881267704       -2.71336905811521       -0.89894467703268
H            0.35815097689554        0.62168766588076       -2.44645422984258
H            0.93579256015946       -0.99438975476939       -2.89104411463161
H           -0.79146608605339       -0.72124422865158       -2.58988484826907
H            1.63470086196985        0.21695474655013        0.62626789561761
H            7.77442524522812       -0.33260088694433        0.77519287107988
H            7.71126470580092        1.18277938208038       -0.12519977992767
H            7.65690325677693        1.21111853802126        1.65261575922605
H            0.12123362567580        1.73235612546221       -0.31826117982455
