42
 energy: -82.938961833162 gnorm: 0.000221676183 xtb: 6.5.1 (579679a)
C            5.85499557741270        2.35849527668838        0.56747164370546
O            4.74737561755321        1.47858946129535        0.36992566022131
C            4.69345301248197        0.40596318996836        1.17521686560513
O            5.52756560833931        0.18826530421095        2.02545702946736
C            3.51333828310151       -0.44541135221768        0.88391662019221
N            2.67367689636340        0.01646645954490       -0.06379515875925
C            1.61364874358547       -0.65915404314260       -0.41161178337701
C            0.70951323622154       -0.09496000282904       -1.49442815439306
C            0.55409931331085       -1.07630128244306       -2.66114119034764
C            1.28407486346150        1.22942453961009       -1.99803497765189
N           -0.59866202982165        0.20894497032438       -0.88839003084325
C           -1.53306795146285       -0.69867149422466       -0.54280861873305
O           -1.43023379105651       -1.91149444149778       -0.63335501622726
C           -2.74650429937342       -0.03924245036751       -0.00093019403304
N           -2.86187406920606        1.28165780860186        0.22308639681273
N           -4.03072486335795        1.51551772894161        0.69632646270260
C           -4.75733586003852        0.27372665105050        0.79101938531984
C           -5.98264145962893        0.30704478549872       -0.12706678039227
C           -5.12575757052797       -0.02542157279062        2.24649495009269
O           -3.82881630667137       -0.70248743489046        0.31734936601893
N            1.29713406663298       -1.84172272525472        0.16650524341944
C            2.03674627804933       -2.43736205775938        1.17393499152276
O            1.67585942363186       -3.49205518537160        1.65767803336719
C            3.28560046495304       -1.68334285086011        1.58718737093253
O            4.00741092192144       -2.14356664151956        2.46735660162716
H            6.79573127651020        1.82149401684395        0.41968059583474
H            5.75639676054118        3.15362736375814       -0.16843198904665
H            5.83233484657156        2.77422055768684        1.57824022178788
H            0.20041493767247       -2.04775932189897       -2.32475076627736
H           -0.15621352271022       -0.67212693467248       -3.37986562074939
H            1.51975181504910       -1.20301908034795       -3.14823639546097
H            2.26292359560617        1.05518536661454       -2.44176753906178
H            1.39875809914731        1.93083606531661       -1.17332480974296
H            0.62323571989466        1.65755399157775       -2.74861002114121
H           -0.82063947617393        1.18422667076143       -0.75400241586712
H           -5.66307920554065        0.51766071335750       -1.14516077717490
H           -6.66150815179809        1.08528451762770        0.21183057309746
H           -6.48135817452676       -0.65861317082200       -0.09432865441316
H           -5.78881197108427        0.75392717484788        2.61328063155806
H           -4.22124872911252       -0.05123495370726        2.85069203047323
H           -5.62656307700670       -0.98928327330092        2.29825538203833
H            0.45100215107865       -2.32488134419963       -0.12086516210465
