20
 energy: -38.303418152142 gnorm: 0.000800070755 xtb: 6.5.1 (579679a)
C           -1.94243823853470       -2.07756243783861       -0.77407782014144
O           -1.40734323471109       -0.77979966000390       -0.95668907344536
C           -1.06607259624045       -0.12359845068414        0.26222106001772
O           -2.11232073616494        0.65213645130665        0.79993169552664
C           -2.42154063556540        1.84463584892885        0.08642359651427
C            0.24111003573864        0.30338543418461        0.44017082432989
N            0.69696299771969        1.15502576276398        1.37908258155952
N            2.07841416516079        1.07194391771493        1.33270352739264
C            2.38972883005219        0.21914513419230        0.42419884488246
C            3.75196009875699       -0.20645187441313        0.00413764645004
O            1.29561791806792       -0.32646160817889       -0.19754617197692
H           -2.89359043564513       -2.04549846280902       -0.22424987462216
H           -1.24364779024265       -2.72321682799531       -0.22349632172111
H           -2.11975442419506       -2.50515793865741       -1.76425359876038
H           -2.70313666800675        1.62526159822700       -0.95195167913856
H           -3.26701077329062        2.32026655151630        0.58916403773234
H           -1.56938713878984        2.53949991129529        0.08280677184222
H            3.89987690875107       -0.02429498132130       -1.06133144982384
H            4.49574649873824        0.35345100622661        0.56759084585862
H            3.89682421840124       -1.27270937445651        0.18516555752514
