33
 energy: -57.872989069311 gnorm: 0.000572579637 xtb: 6.5.1 (579679a)
C           -2.40728372391790       -1.35768133923991       -1.00578292016377
N           -2.78395551589395       -0.15408343541249       -0.22128371016583
C           -1.67876074228347        0.86385358448735       -0.01787175267147
C           -1.29925277966502        1.45896912991903       -1.37020744567368
C           -2.24626856806114        1.93619374004433        0.91269091443280
C           -0.49427288130514        0.15977944388268        0.60589660972709
N            0.62010372993061        0.12776596777725       -0.03408305224072
C            1.70206338530873       -0.49555935959307        0.53900012980815
C            2.96307664203648       -0.51866607591517       -0.24057183203903
O            3.97661381424015       -1.05501335759885        0.16934716029692
O            2.87951273321095        0.08862510207403       -1.41189239965575
C            4.06174695507778        0.09249271881793       -2.22409736444946
C            1.63088676361069       -1.08559288008525        1.77806418556650
O            2.64841222733846       -1.69867951107941        2.36845215966979
C            0.36689823431707       -1.06043003001610        2.52964718010140
O            0.16465031032889       -1.54171036592374        3.62448172698239
N           -0.64638859233946       -0.40261749991212        1.84161836885672
H           -1.56211826554552       -1.83836649078069       -0.52008446160563
H           -3.26924739409950       -2.01947395310751       -1.01688959558411
H           -2.15091964633491       -1.05588225949886       -2.01703882306149
H           -3.12625111927450       -0.45588232620555        0.68728287698792
H           -3.55912905309398        0.30994611680762       -0.68843660002068
H           -0.82028974966503        0.71389217204141       -2.00260282918382
H           -0.59358616774932        2.27268526111657       -1.20747226759457
H           -2.18325024990596        1.84931371567155       -1.87009156345620
H           -2.58963227020692        1.49782693253531        1.84751386664761
H           -1.47154136678419        2.67023940851606        1.13098487841596
H           -3.08358873497672        2.43821422845476        0.43137308715765
H            4.89428869385645        0.53081393347763       -1.66920651387976
H            3.82963991630688        0.69116034756855       -3.10238922304258
H            4.31377380935070       -0.92992904581257       -2.51395342727332
H            3.44812984524611       -1.67323608898565        1.78858366340822
H           -1.53405823905818       -0.35896778402497        2.31436197370331
