47
 energy: -80.220090813706 gnorm: 0.000353614249 xtb: 6.5.1 (579679a)
C           -3.22733057206703       -2.44115666244068        1.01800160350293
N           -2.29474208007712       -1.35196290030803        0.74316590648344
C           -1.16384716233400       -1.29771209555449        1.54446165554484
O           -1.09210864050670       -1.95601607586459        2.60928424970898
C           -0.10655625656699       -0.47528424505601        1.07778497579911
O            1.04732290338808       -0.42910223530659        1.88812878423117
C           -0.10903409872432       -0.00709879347063       -0.23312831795460
C            1.11727878948986        0.59350907434945       -0.85841436253589
O            1.40831256642252        0.46115787605278       -2.04639846672860
N            1.86547636633378        1.36458688836426       -0.02849000538072
C            3.12987116037493        1.92629443679141       -0.47808216149833
C            4.25568338121386        0.93127526551140       -0.28906432690197
C            5.02706369637532        0.95224488497003        0.87027964318600
C            6.04532696117936        0.02772561473419        1.06090049039259
C            6.26689601125670       -0.91296418746722        0.07231773970967
F            7.25382544656615       -1.81195321252407        0.24613840503684
C            5.52006705522277       -0.96492169890873       -1.09088152899477
C            4.50699198543445       -0.03275538826933       -1.26376148843191
N           -1.15435579764184       -0.09939403620316       -1.03480398329545
C           -2.41945399011036       -0.55165185657987       -0.49248243182565
C           -3.05319674327515       -1.39182579156857       -1.62234854375541
C           -3.28811922990812        0.74416452085234       -0.22299515690529
C           -4.73233522208671        0.45154027728360        0.19780899487681
C           -2.63593239035306        1.61949744055384        0.86206908723712
N           -3.33089359746478        1.47691649138208       -1.49076479767641
H           -3.17702612478610       -2.67558730865832        2.08360125532295
H           -4.25050254125879       -2.15586592747471        0.77823707508962
H           -2.97177401453020       -3.34375496684295        0.44998276549670
H            0.82466245903143       -0.93680952130514        2.68683134856049
H            1.71938910288963        1.32644057695175        0.96861073300845
H            3.32369217317212        2.83547112099092        0.09638548522118
H            3.03036908892264        2.18798674584328       -1.53689421654235
H            4.83919906013722        1.70037671407641        1.63154593359947
H            6.65601868647725        0.03761288831063        1.95379434608417
H            5.73373086161880       -1.71463144648159       -1.84165829705008
H            3.90548709581077       -0.05216801487022       -2.16664485995162
H           -2.40431826966110       -2.23812723505940       -1.84785732982520
H           -4.04511988580692       -1.76305606232541       -1.37652127074221
H           -3.12852006833330       -0.76511439021299       -2.51042876983150
H           -5.27668384136388        1.39204974409749        0.29542230589969
H           -4.76175072723746       -0.05417582747995        1.16195889124848
H           -5.24792129856069       -0.15642409365841       -0.54439900076512
H           -3.23119116225914        2.51926547739398        1.01761180808995
H           -1.63322990595981        1.91992793207045        0.55969882974041
H           -2.57403827046464        1.07638965772123        1.80527403730298
H           -2.37067804846714        1.67213853063690       -1.77068902388899
H           -3.79600791151668        2.36294081495263       -1.34814900989102
