42
 energy: -83.004086553435 gnorm: 0.000306703072 xtb: 6.5.1 (579679a)
C            5.87851510347607        0.11988660768796       -0.76215067894055
O            4.78331518480416        0.78438328281616       -0.11125459216449
C            3.58159095154232        0.28302479489593       -0.29574015574921
O            3.32231265377008       -0.67650976099804       -0.97195687004578
C            2.48940078850414        1.10844579043382        0.44703754461259
C            3.06196990659168        1.86462596891112        1.64547052750632
N            1.51581821443180        0.14060196773210        0.89480600541126
C            0.54554949112712       -0.19034826277892        0.15123022410716
C           -0.35863256091555       -1.33528454445514        0.55370735901773
C            0.06123101767860       -2.55547053907836       -0.28044887936080
C           -0.22887592825227       -1.61624311667583        2.05312283414935
N           -1.73549658131940       -0.94158509878509        0.23811956544970
C           -2.79200856779943       -1.77123332785005        0.40595389310419
O           -2.72550660831465       -2.95793568043138        0.67213016637040
C           -4.08890984248692       -1.07580933080859        0.21326039337258
N           -5.28099311090669       -1.57942785634600        0.29359651445061
N           -6.15561963739606       -0.55919841656011        0.06915612867908
C           -5.44414969722621        0.50584190517044       -0.13287761590163
C           -5.91952315846797        1.87634729262607       -0.42039352462107
O           -4.12789328109644        0.24801448882304       -0.05509549289604
N            0.27316171074885        0.39113794789079       -1.08160607141931
C            0.89447481499713        1.50776467706406       -1.55384497020260
O            0.60142337383211        2.02437241086707       -2.60747635678713
C            1.98075972733200        2.06018825857026       -0.62224563702606
O            2.42592710455041        3.16763014384646       -0.76989985122748
H            5.78322388695809        0.22802230290172       -1.84406988577814
H            5.87880110649602       -0.93881251340997       -0.49735014916742
H            6.78469119882867        0.60447340668074       -0.40696520089168
H            3.55474027179447        1.16746520688074        2.31882447959446
H            2.25015499975192        2.36001894484672        2.17476918683434
H            3.77732463720028        2.61131225902291        1.30649093160527
H            1.13062090144213       -2.72049218750431       -0.15312528591998
H           -0.47870748215113       -3.44176144406034        0.04623477624807
H           -0.14674632401140       -2.37791033947534       -1.33386883548090
H            0.80538051126248       -1.86187609399705        2.28808410395812
H           -0.52037231023732       -0.73517671376363        2.62183453081222
H           -0.86906266063602       -2.45181969472743        2.33010030671415
H           -1.92786268682904        0.04323904762623        0.15586292906870
H           -5.53349741785334        2.56755142520367        0.32820746959846
H           -7.00646292208085        1.89758999376142       -0.41287810316678
H           -5.55363323510410        2.19853022342478       -1.39513691433615
H           -0.48643354403196        0.02642657402525       -1.63648179958114
