21
 energy: -30.830658111378 gnorm: 0.000208508174 xtb: 6.5.1 (579679a)
C           -2.25521542596684        0.89646600190451        0.54342317245476
N           -2.12498607683347       -0.39463713423807       -0.17280051469170
C           -0.98510631145820       -1.23563450799191        0.32009795408769
C            0.33128642626767       -0.55646521365094        0.04983570799436
C            0.84635009232109       -0.53505693730167       -1.24612456439548
C            2.06008584101451        0.08104831966787       -1.50961006142363
C            2.74243199040964        0.66528857483038       -0.45591636745462
F            3.91443703531899        1.25739261844092       -0.70088377107714
C            2.25924449305351        0.65976972814288        0.84100179344272
C            1.04096123548457        0.04390164289575        1.08836081139534
H           -1.33827146662716        1.46376194304155        0.40429855426132
H           -2.42021547286025        0.69155186837165        1.59813889076611
H           -3.10301194319078        1.42956498213663        0.12084404814015
H           -2.00453754410905       -0.21704500570969       -1.16715085364220
H           -2.98396075111184       -0.92364493377345       -0.05730779099038
H           -1.14801085390680       -1.39841135588579        1.38599859920872
H           -1.06032246601709       -2.18502247445568       -0.21291088886518
H            0.29563712848347       -1.00518603021447       -2.05112630072264
H            2.47009636467082        0.10620338391402       -2.51104941442699
H            2.82184243203574        1.12876986356376        1.63796183074282
H            0.64126427302168        0.02738166631145        2.09491816519597
