43
 energy: -83.169332422026 gnorm: 0.000602667648 xtb: 6.5.1 (579679a)
C           -5.09105892561290        2.10095430007595        0.85216162005648
O           -3.85978097207376        1.36181956539120        0.74074838667398
C           -3.81024525117801        0.30176449596135        0.02352725674045
O           -4.88685994318012       -0.06968586493553       -0.58508796770525
C           -2.55404602468490       -0.40772431310022       -0.05249879112251
N           -1.53783498218703        0.15317022928506        0.67916813993907
C           -0.37824852985881       -0.41700734052296        0.68273316509718
C            0.73576280829116        0.17401109703665        1.52938608284274
C            0.30504820736825        1.54470586250386        2.05395277085077
C            1.04070245184460       -0.76939951218159        2.70234470126055
N            1.93533200263669        0.38971179946129        0.71271000722030
C            2.76393444065971       -0.56726616496877        0.25179788764688
O            2.57394595037495       -1.77399185273073        0.34694460587203
C            3.95447970481253       -0.01474773835119       -0.42791877015407
N            4.94329219908078       -0.66470542561838       -0.95777826243247
N            5.79857235514323        0.26402589687393       -1.46359841563642
C            5.28077067296442        1.42708326719121       -1.21358262419418
C            5.82298050658826        2.75729645528287       -1.56311609320176
O            4.11274036956798        1.32072043973773       -0.55889312355142
N           -0.13904842607654       -1.56157325966889       -0.00797035333683
C           -1.05314738278027       -2.21633267232277       -0.79503538269460
O           -0.75817816737499       -3.22673821548782       -1.40305440358216
C           -2.37758205093639       -1.56325742712959       -0.79860031357195
O           -3.40477625967273       -2.04356833409242       -1.48746342445468
C           -3.31804268465104       -3.23019599942441       -2.30299810900014
H           -5.88173325092563        1.43894185273626        1.20617926916748
H           -5.35594659945370        2.50671422424180       -0.12469183669790
H           -4.89656950960261        2.89769100308188        1.56623845071223
H            0.06875054910063        2.20859404346493        1.22424118448699
H            1.10691689818190        1.98054010719957        2.64677934519950
H           -0.58138612063482        1.43680432621230        2.67628947026937
H            0.15712741163486       -0.84999676299266        3.33333798934187
H            1.86225932150367       -0.36073229116795        3.28816856819847
H            1.31270706989131       -1.76152889649112        2.34871043476689
H            2.19307225022596        1.35075674302402        0.55282459762645
H            5.96076401053501        3.35066981195291       -0.65919326770071
H            5.11933708223127        3.28583536189430       -2.20636111405882
H            6.77484601094404        2.64337154373561       -2.07692121260053
H            0.80448551232054       -1.96827889114751        0.03832463659402
H           -4.79603136339384       -0.89145195639494       -1.11565453736432
H           -2.56912254371221       -3.09608988164032       -3.08388663404926
H           -4.30689675509268       -3.34714492875356       -2.74178140125105
H           -3.07129304281234       -4.09376369721205       -1.68457253220109
