42
 energy: -83.007800979363 gnorm: 0.000348984468 xtb: 6.5.1 (579679a)
C           -6.45388611408074        1.36263323793868        0.08022501624512
O           -5.23360093189301        0.60584216793374        0.12319886152884
C           -4.10135549037537        1.31651101116781        0.05146115409009
O           -4.08854378795846        2.51944542214288       -0.03978359769102
C           -2.86484422243054        0.47762600948059        0.09180989081526
N           -1.73122507592129        1.20062519321976        0.04437609653020
C           -0.57794767309561        0.56866274162210        0.06117965171456
C            0.67389878573118        1.42273680307609        0.03543855151732
C            0.78321111769696        2.16152027859916        1.37875021221203
C            0.58871307034081        2.41685242104905       -1.13014649006247
N            1.81734186546848        0.53210364223313       -0.13942447879252
C            3.09405022054563        0.94411828580387       -0.20549044279975
O            3.47509860834127        2.10164153396686       -0.13946780792795
C            4.01608014976430       -0.21125748818336       -0.38168723841399
N            3.67393173940377       -1.46242742455346       -0.45196545567725
N            4.82357239926715       -2.17564977401220       -0.62047718340175
C            5.79344446242416       -1.31295932295509       -0.64340929106495
C            7.23904891316112       -1.58465751130465       -0.80436223021120
O            5.34800441429449       -0.05637346385644       -0.49658208852308
N           -0.44491129326673       -0.75822175906905        0.12695662417197
C           -1.53066212664562       -1.51072149560180        0.18358383813541
O           -1.27320375498267       -2.82085180587559        0.25560794977989
C           -2.27697382335311       -3.82739754675159        0.36068701966065
C           -2.82161858500578       -0.91140315921901        0.16782741025132
O           -3.90614754227498       -1.70461807483450        0.22463482371157
H           -6.53168100435086        1.88192150698261       -0.87727036598761
H           -7.26625452390835        0.64982634082251        0.19359906491564
H           -6.46663307850182        2.09045912680601        0.89428266755406
H            1.64953220539445        2.82072338263470        1.37646896339377
H            0.88128119084292        1.44265287221798        2.19091453147560
H           -0.11758245691843        2.75289759161839        1.53472183656662
H            0.56086253753262        1.87878423927846       -2.07653615163719
H           -0.32329497268983        3.00340213093713       -1.02912934464475
H            1.44778291159123        3.08509442632145       -1.12228650641390
H            1.61526567067007       -0.46083673246557       -0.17953738629456
H            7.64219943090074       -0.98672812983867       -1.62104332662084
H            7.39089115759147       -2.64072664345184       -1.01266968416868
H            7.77363622233917       -1.31511774388480        0.10664662074246
H           -2.92518466537369       -3.83051873406029       -0.51806041728663
H           -2.87625601612568       -3.69223386970912        1.26357404595556
H           -1.73780007549784       -4.77415159244018        0.41941862802210
H           -4.73824085864628       -1.19922709375890        0.22127502862401
