33
 energy: -57.808922087396 gnorm: 0.000435390394 xtb: 6.5.1 (579679a)
C            4.04831521025789       -0.86394014263940       -0.69896506624628
O            2.68626858830750       -0.51638850812569       -0.30124694571764
C            2.42108527509092       -0.72304498376176        1.12480832595434
C            2.22284106167234        0.74527945119107       -0.93592094814918
O            3.05189658248809        1.37820973907340       -1.51344011905831
C            0.81323657327516        1.00190420114942       -0.83394433710790
N            0.02748367497487        0.09965955302904       -0.16896651822630
C           -1.24058466460567        0.31509279765617       -0.04210984283519
C           -2.04584874011925       -0.71061496929571        0.72785211745249
C           -2.25883553249097       -1.92051280098879       -0.19487427549747
C           -3.38624734226971       -0.16291526086981        1.23123770644742
N           -1.20125719581436       -1.12773175640244        1.84583229022531
N           -1.83643455282775        1.40134159386722       -0.60681907182361
C           -1.17544761103672        2.38078475754678       -1.32047760032778
O           -1.76101541458768        3.32796939659018       -1.79791702204743
C            0.28053565026836        2.13914062596230       -1.41984266785565
O            0.96620690213494        3.05235083235900       -2.07577544140861
H            4.21523812300726       -1.88380700930664       -0.36413916284626
H            4.08650563136414       -0.79856788143902       -1.78374749915819
H            4.75040685718227       -0.17005741154393       -0.23809451549338
H            2.82127865202472       -1.70404046013948        1.36806503824292
H            1.33898160222543       -0.71039881057008        1.25615627715784
H            2.91329810692626        0.05868442434796        1.70138516431126
H           -1.29181365941338       -2.33446523772973       -0.47766087324469
H           -2.79812454748848       -1.62173491419502       -1.09271426067017
H           -2.83413197249946       -2.68210232345565        0.32873463887126
H           -3.23005120679568        0.74227105118646        1.81550847423201
H           -4.05707050178199        0.05223547367696        0.40016550251824
H           -3.85731573780325       -0.91001888265250        1.86809765830162
H           -1.11952717989720       -0.36250538698667        2.50178777756409
H           -1.64121976975180       -1.90198784766298        2.32586396232560
H           -2.83261317537167        1.54007170570445       -0.50356811654484
H            1.92395931335695        2.86983698442612       -2.12527364934209
