38
 energy: -79.622816160022 gnorm: 0.000659932908 xtb: 6.5.1 (579679a)
C           -6.09410879844432        2.08043370719087        0.60957981956717
O           -4.97820026702737        1.64794396737862       -0.15546982857665
C           -4.01729935331385        0.97632878518150        0.52831591470515
O           -4.13885926807842        0.76814536236192        1.73032133971555
C           -2.88051517871886        0.55316602237403       -0.27545314921347
N           -1.92285259250707       -0.11162244900348        0.46811984394923
C           -0.85481650723665       -0.55291643572090       -0.08063351996781
C            0.16144567100336       -1.32993967818768        0.73034455128331
C           -0.11799553818661       -1.13793682949234        2.22440322831238
C            0.08574503547719       -2.81344074632627        0.33803627330418
N            1.49749260545460       -0.80232120012782        0.40496697977620
C            2.63250549077560       -1.28283066401178        0.94233651982719
O            2.71346265354493       -2.21909738246642        1.72316464179701
C            3.84384811793271       -0.54982044025296        0.48551296906129
N            5.07272379029518       -0.75563147327031        0.84711545991835
N            5.83788401946142        0.15374717020743        0.17855986394229
C            5.02899418409636        0.85792025206640       -0.55012069110686
C            5.36831360032571        1.96698999503083       -1.46808493689711
O            3.75298041417853        0.46512601068895       -0.40130417823418
N           -0.61340502206036       -0.40238437098665       -1.43372627925043
C           -1.47375520839721        0.23818414949999       -2.29070597337439
O           -1.18425109010757        0.33909196542161       -3.47988524477625
C           -2.74607320888511        0.77592480462315       -1.67096498318459
O           -3.56442809431069        1.35598368625951       -2.40750408390764
H           -6.77902620487438        2.57754293792742       -0.07641308814244
H           -5.78068931319300        2.78047161646615        1.39067664694885
H           -6.59522015769422        1.22894679732971        1.08093984068564
H            0.56122419021535       -1.74369103305538        2.82050536867599
H            0.00656254345971       -0.08921417653046        2.49138977846541
H           -1.14452380621532       -1.43422091972948        2.43753993988287
H            0.78114476379438       -3.40300620214940        0.93217643714623
H            0.33094667087790       -2.93304126278305       -0.71591023605440
H           -0.92543825095022       -3.17998025202219        0.51041670522586
H            1.55729114992188        0.00930931428144       -0.18832568639030
H            6.42285306736155        2.21342847943562       -1.36989281375797
H            5.15951422193738        1.67363250496480       -2.49745343961230
H            4.76128584723454        2.84210915575342       -1.23693924057096
H            0.23524082284810       -0.76333416832122       -1.83531374917211
