42
 energy: -83.591678014990 gnorm: 0.000749048395 xtb: 6.5.1 (579679a)
C            6.48734235296512        2.25780607807579        0.36663786882429
O            5.36064067881557        1.57367152301169        0.88317592319569
C            4.48358510030289        1.08939176914856       -0.05109170490982
O            4.70711330130541        1.27894229005205       -1.24740710818211
C            3.35007738100873        0.37364880121777        0.48782970356728
N            2.49556438927358       -0.10992692865052       -0.49681830656133
C            1.45435188288594       -0.79108294875108       -0.15941932775203
C            0.54762000581084       -1.36886840959768       -1.24661056496694
C            1.00655538013200       -0.82751801959211       -2.60802979772674
C            0.68126101217007       -2.90308518487843       -1.25432884170255
N           -0.86668229179630       -1.00564079547217       -1.11577974669294
C           -1.57415265419587       -1.19834347610471        0.13670326429131
O           -1.11515420619701       -2.06536957949578        1.02150725922803
C           -2.72270961895981       -0.50248482389803        0.27402817659056
N           -3.64247560391698       -0.49659218436251        1.35057626454769
N           -4.56219103371164        0.37902689791792        0.95910211336700
C           -5.68979811312811        0.63923133602135        1.82098399655248
C           -4.34705500859209        0.91734192462571       -0.21830318955824
C           -5.17965240131791        1.91292843356977       -0.93829398060827
O           -3.19151339840447        0.42112191453253       -0.74864177001994
N            1.13860315397730       -1.08419517328064        1.13486051901222
C            1.86106322412583       -0.64360738430740        2.19084505036828
O            1.51830447322615       -0.89792553599273        3.35675210078456
C            3.10872457415271        0.15597816628625        1.86968579556460
O            3.82379058846152        0.56359167595897        2.81486790290386
H            6.18308370215938        3.12982163449049       -0.22245045845247
H            7.08587771759934        2.58405476139103        1.21699859653415
H            7.08782903008186        1.60022899470740       -0.27171388724263
H            0.36918095463803       -1.22084906461323       -3.39914782604639
H            2.03768795671679       -1.12219351196138       -2.80283920236122
H            0.95340362358166        0.26138196524619       -2.62070773583673
H            1.71563820198363       -3.18574913974919       -1.45186290776157
H            0.37659894895499       -3.32920830206590       -0.29915644489343
H            0.04743049310545       -3.31875292884754       -2.03760415996608
H           -1.02975533314483       -0.06671044618950       -1.46550749401652
H           -5.55745470065885        0.06349269720346        2.73456280046673
H           -5.74213517567402        1.70180357249501        2.05440128659864
H           -6.61087160544599        0.33756826045839        1.32378853875668
H           -4.75531115732981        2.08181919332078       -1.92579234621590
H           -5.21417945889732        2.86471812948742       -0.40379374521698
H           -6.20548122484351        1.55765586530270       -1.05042282967317
H            0.12524385878102       -1.60712304672037        1.22580421520637
