47
 energy: -79.523837793499 gnorm: 0.000496485300 xtb: 6.5.1 (579679a)
C           -3.73048384213082        0.66526852219874        2.38713167474265
N           -2.55390372971457        0.13104764294854        1.67969207355327
C           -2.38094100558049        0.17880024933795        0.34272294588680
C           -3.58955139970004        0.40453788752922       -0.58028262548167
C           -3.81940519042260        1.89706045076424       -0.85682048376184
C           -3.48088747524267       -0.37986034330666       -1.90448153692862
N           -4.75467358109455       -0.12558583392771        0.12054155740463
N           -1.16063384947015       -0.08350865052396       -0.13992411276208
C           -0.73977327096263        0.38969999653936       -1.47008650490906
C           -0.15340522246332       -0.67315752770418        0.62049724502650
C            1.05723840770417       -1.23476850891770       -0.09745413755991
O            0.96868258518261       -1.69837332347024       -1.22414609256643
N            2.18074432704394       -1.22076815555365        0.62312065349943
C            3.42628908552204       -1.76938183260873        0.09132019232699
C            4.34910734669019       -0.66790971814634       -0.38144095992002
C            5.66876465773482       -0.62215062184389        0.06000970542374
C            6.52663669620413        0.37627668719266       -0.38143229976885
C            6.03513868549271        1.32018646378758       -1.26464060336861
F            6.85576857813031        2.29007225670964       -1.69374748384388
C            4.72882371204852        1.30524837038073       -1.72135299593329
C            3.88686295456819        0.29851213387769       -1.27298228066504
C           -0.37984457129281       -0.86583073689096        1.94507511376713
O            0.49906962592395       -1.46099116362825        2.75525550299880
C           -1.60061662212629       -0.38716463240078        2.56532386969833
O           -1.79073654550702       -0.43727096218360        3.76394319208471
H           -4.21321754889003        1.42903428893367        1.79261834558843
H           -4.42571293850363       -0.14399407129226        2.59882843541277
H           -3.37237768291713        1.09518887642244        3.32298520080117
H           -2.95808343468170        2.34252277550928       -1.34972541519081
H           -4.00945173481553        2.44053909570679        0.06638597930677
H           -4.68498328971719        2.00105872608732       -1.50902334193959
H           -4.49391000982656       -0.56275147789213       -2.26074990463905
H           -2.99463072304099       -1.34065114036133       -1.74791813071861
H           -2.96092466334018        0.17505675527217       -2.68036942154363
H           -4.74237966474983       -1.13620221626530        0.07952600044857
H           -5.59093704165698        0.19640853503781       -0.34660707005710
H           -0.77738334637349       -0.42166056262467       -2.19374048082118
H            0.28423777761003        0.74634332470606       -1.38093115342500
H           -1.36869581147192        1.21648944397627       -1.77565680681181
H            2.20528221638537       -0.80227576075383        1.53664661060021
H            3.16555033641531       -2.42954078422953       -0.74256825894493
H            3.90076785331125       -2.35964512295406        0.87886002900509
H            6.03215753524328       -1.36983870453401        0.75519067039267
H            7.55389989611326        0.42372380420650       -0.04357028291550
H            4.38023276109844        2.06295426980121       -2.41059392660681
H            2.86014008617389        0.26689187035204       -1.61686895261267
H            0.16214707109284       -1.45964157526196        3.67102426573356
