42
 energy: -82.987714174739 gnorm: 0.000854147201 xtb: 6.5.1 (579679a)
C            5.65795598893301        2.48909582400035       -0.60577810480331
O            4.45384078577970        1.75784703693829       -0.36067135978437
C            4.40489503919536        1.05030559614970        0.76853141150612
O            5.31364942246131        1.00933157424996        1.56409876132384
C            3.10390985562606        0.32743850059648        0.91558621665746
N            2.17100876958335        0.55337763312227       -0.03049749939034
C            1.00636038420935       -0.04823894837956        0.05637264814333
C            0.01617365672852        0.20869352148414       -1.06089500648560
C            0.46616670778309       -0.61311133211407       -2.28039959966399
C           -0.02421694364301        1.70610261986437       -1.39090339628795
N           -1.30128539099151       -0.24036707345458       -0.60901520859635
C           -2.39256319066219       -0.20645239236547       -1.37635945417644
O           -2.44607813965696        0.19617371374860       -2.52660466884634
C           -3.66193924659830       -0.77654404839751       -0.69333706475755
C           -4.00727314563838       -2.13193600841757       -1.31095203080980
N           -4.76664882418667        0.15512845160555       -0.90294058198475
N           -5.21654443345865        0.53199576933696        0.18905607224358
C           -4.49848330319991       -0.06812641652039        1.23707655423814
C           -4.75000407471786        0.11768801978655        2.53050237587870
O           -3.52662562635309       -0.86054992395677        0.70914060287165
N            0.66145649768981       -0.91088473321669        1.02833029128358
C            1.55676569617553       -1.16075516952693        1.95737048997214
O            1.29638388668483       -2.02054810570004        2.94462677202778
C            2.83420816735668       -0.54544638437183        1.95904637126382
O            3.71582824676343       -0.82570400860697        2.93048755989124
H            5.58087027430522        2.88774214768153       -1.61528290487863
H            5.75456225782602        3.30359130928752        0.11612863570991
H            6.52430726422172        1.82827363641349       -0.52317547700182
H           -0.18945451277705       -0.42470975316158       -3.12850848270413
H            1.48378409916563       -0.32988630762973       -2.54510064814090
H            0.44318722562975       -1.67439078998735       -2.03898566645564
H           -0.39745469390314        2.26518090261931       -0.53387303327434
H            0.98323666624434        2.04753978902674       -1.62469524854578
H           -0.67169415666558        1.88776098527111       -2.24706206564308
H           -1.34890559670326       -0.64483686381960        0.31660074222796
H           -4.10827397351866       -2.01878489536358       -2.38841490657958
H           -3.21472370963962       -2.84183274325793       -1.08925017220785
H           -4.94177656594826       -2.49329271607649       -0.88759823485342
H            0.42100568509511       -2.41712357073073        2.85953259390710
H           -4.17711645149131       -0.37667508836663        3.29728740750032
H           -5.54929471382034        0.77198140245334        2.83682828393628
H            3.34079911611060       -1.46504516020376        3.55369702529492
