20
 energy: -37.598379188107 gnorm: 0.000797844209 xtb: 6.5.1 (579679a)
C           -2.61576580014451        1.55032556558070        0.09186676968162
O           -1.36818153064682        0.81624583300251        0.02569321363572
C           -1.39927671959703       -0.46698618867869       -0.07085083019585
O           -2.31678015840585       -1.22232609249783       -0.07753577641026
C            0.10026020959060       -1.04866288876325       -0.15512968003998
C            0.09451065455530       -2.37869770182271       -0.89379848660179
N            0.52628833176816       -1.08318387077974        1.19532683419278
N            1.42444934897808       -0.22105275263941        1.38226878745950
C            1.67767125280344        0.39309567347604        0.17367814026173
C            2.64868757104372        1.45618435379073       -0.03912168674617
O            0.93719349123097       -0.08983112245197       -0.75032090549832
H           -2.43210202740821        2.39790852996247        0.74840168768375
H           -2.85998038080360        1.89029933217635       -0.91426604001837
H           -3.40324754371551        0.90710836048306        0.48458155779984
H            1.09658795611577       -2.80085223414539       -0.87766932157293
H           -0.60552908839124       -3.04778539003389       -0.39741534879864
H           -0.21967084343406       -2.21188604971033       -1.92166731612560
H            2.45750662581114        2.26455469690766        0.67026222502636
H            2.60967889511159        1.82182062331698       -1.06262660317676
H            3.64770075553825        1.07372032282664        0.18837177944322
