42
 energy: -83.625610677494 gnorm: 0.000442362884 xtb: 6.5.1 (579679a)
C            2.37771659198418        3.71664485862782        0.38859634710163
O            2.09298615599793        2.35140668495888        0.15338399466008
C            3.19216827241115        1.56703853654875       -0.15670133775903
O            4.30026469069929        2.09727759808352       -0.21622637654896
C            2.85250261425248        0.16829426833664       -0.35040977974221
C            3.89420950580430       -0.78345796300529       -0.57516071788042
O            5.11093154444142       -0.50765499198458       -0.80805541708733
C            3.48646950945064       -2.21334599612863       -0.44764650680672
O            4.27525977789292       -3.17109530642269       -0.43998875889252
N            2.15127221539755       -2.45107995424166       -0.21113505022943
C            1.13033138713517       -1.47177671859232       -0.55951402053143
C            0.83258646147595       -1.58177345292872       -2.08241644461790
C           -0.16160927218451       -1.76587033402657        0.27982401044363
C           -0.84559894694614       -3.07843692694261       -0.11485683754122
C            0.21153550279313       -1.78553814942844        1.77055548183609
N           -1.04442206513540       -0.63237677150479        0.01618625281118
C           -2.30280949907529       -0.49658836256554        0.52409810730720
O           -2.93923367681358       -1.40245443717059        1.08660450365113
C           -2.83837972472892        0.83370443172281        0.27780485237837
N           -2.21254627181487        1.83833667623417       -0.30932530700983
N           -3.08432156833166        2.89225888558335       -0.31496218130553
C           -4.17128229294441        2.48791685087212        0.25741007745316
C           -5.40906430760045        3.27145316822753        0.48717632593561
O           -4.10049396106835        1.20246357103513        0.66264729368762
N            1.52680561355622       -0.13430374851871       -0.23837239601041
H            1.43783042347740        4.20916585627056        0.63934400678949
H            3.08183748290997        3.83589626181976        1.22065067576523
H            2.81019122857310        4.19027189561759       -0.50074312365805
H            1.88160589716341       -3.41913201496356       -0.28785512531355
H           -0.03410202013484       -0.97252423205496       -2.33271391419928
H            0.64221349559453       -2.61437824363293       -2.36772876172923
H            1.69399389777794       -1.21823068386810       -2.64234162746471
H           -0.12308313567387       -3.89270548681993       -0.12554507359134
H           -1.29846841767059       -2.99780984035300       -1.10168975955038
H           -1.62801102734819       -3.33020661580348        0.59962863593313
H            0.87728153051063       -2.62337420365473        1.97497086389693
H           -0.68202228242362       -1.88738076681004        2.38472135161710
H            0.72192816150681       -0.85635551550014        2.03005103184611
H           -0.53951902591820        0.22690993143046       -0.21072086747022
H           -5.60985111523878        3.35904753377649        1.55500964118600
H           -5.29510327721575        4.26496424821986        0.06052025629608
H           -6.26199907253008        2.77479945955783        0.02492167434820
