46
 energy: -87.050795848388 gnorm: 0.000757405186 xtb: 6.5.1 (579679a)
C           -4.80126451892076        0.86982674110812        1.71793389762354
O           -3.69913938856016        0.67825120934765        0.83353877449787
C           -3.98822347270550        0.65384655229736       -0.47993638424102
O           -5.12404247643843        0.79534140289794       -0.89217564864786
C           -2.77939685209490        0.29437346683744       -1.35991319506515
C           -3.00310417646399        0.85504462053218       -2.77177796030596
N           -1.56507570842514        0.87139359675506       -0.80528048378428
C           -0.81727485320300        0.19326477602927       -0.00773269980265
C            0.36923118476331        0.98013114134616        0.56819625481163
C            0.46117320882130        2.34893712739209       -0.12397303115641
C            0.20730792094317        1.19338065152302        2.07960423396865
N            1.59915948717810        0.23628351283905        0.25616637019623
C            2.82000578183674        0.57919833650656        0.70933235877788
O            3.06233890725785        1.43041930876625        1.55013171609010
C            3.87294085935391       -0.24490933565466        0.05644374906669
N            3.68010029550448       -1.14158335658425       -0.86467557422495
N            4.90667941218202       -1.63906706688446       -1.19316411117585
C            5.76894799711107       -1.01332702137220       -0.45266387012299
C            7.23750488082963       -1.19317954366568       -0.43345499485669
O            5.18048746655505       -0.11982025338737        0.35698155529932
N           -1.00560996194098       -1.11516016765888        0.30769500490880
C           -0.29265693660965       -1.83132490454800        1.35447624698388
C           -1.92926560127956       -1.92336314535077       -0.50146643124854
O           -1.86725465547569       -3.18416670485912       -0.40327022962704
C           -2.72826073917585       -1.20511157952646       -1.33205783936175
O           -3.63324530907116       -1.87714873212052       -2.18929772982958
H           -5.50903851274787        0.04002175556224        1.63474392928950
H           -5.31975989225267        1.80408079650066        1.48450686106633
H           -4.39548749989824        0.91381901674386        2.72690512199759
H           -3.94253235837862        0.48068502308621       -3.17705261437184
H           -3.03546201626379        1.94357877570471       -2.73940639710555
H           -2.18453900532974        0.54615313352512       -3.42009382688346
H           -0.44059653932759        2.92367576928889        0.08038441854150
H            1.32569395340683        2.89459478184731        0.25076515073946
H            0.55779435212092        2.22156107892506       -1.20109990074618
H            0.83107667598474        2.02008856176715        2.41523816610619
H           -0.83397895309768        1.43259441133089        2.29421481062641
H            0.49072066240580        0.30776866468034        2.64219503440043
H            1.56537986806924       -0.39758767045541       -0.53128307031261
H            7.73215139126042       -0.25699105774740       -0.69113309850815
H            7.56579791772322       -1.48337501516568        0.56422873466153
H            7.52002474811603       -1.96215442375793       -1.14795881164451
H           -0.69388513573344       -1.57371495769442        2.33832533884980
H           -0.43927411443374       -2.90170405371960        1.18915500685855
H            0.77584102309405       -1.62132181047200        1.33524342131135
H           -3.50198931668897       -2.82330141251412       -2.02754225364762
