20
 energy: -38.329113841476 gnorm: 0.000586750193 xtb: 6.5.1 (579679a)
C           -2.53074453995824        1.62460848724759       -0.41911195306741
O           -1.30765781641883        0.90648751096100       -0.50660656654994
C           -1.35648231834964       -0.39882352625779       -0.12902781319711
O           -2.41129312287950       -0.92729682242491        0.21493343202275
C            0.01924483287345       -1.02557992348385        0.07647596246432
C            0.01751801811481       -2.54013154166132       -0.13963593521668
N            0.15899149638158       -0.62436277093461        1.47665883386167
N            1.16530755418859        0.30777289776981        1.47975481520965
C            1.65661789772285        0.43479287970971        0.30641392334688
C            2.78639127419632        1.30372059267536       -0.12184273872644
O            1.04662786743396       -0.38340372043915       -0.65634050807636
H           -2.89226840325254        1.65738631296052        0.61390953992323
H           -2.33567800566295        2.63611058677578       -0.77285799691124
H           -3.29798029718662        1.15864463475011       -1.04516242863449
H           -0.83096368856342       -2.97556497080223        0.38493850882550
H            0.94009713676806       -2.96039804379652        0.25520395821192
H           -0.05498754478604       -2.76939458563804       -1.20138285045316
H            3.58877155914484        0.70735099930669       -0.56066969206432
H            2.46312382831603        2.02951785465021       -0.87110705871360
H            3.17536327191776        1.83856314863238        0.74276756774485
