42
 energy: -83.615997008252 gnorm: 0.000907527756 xtb: 6.5.1 (579679a)
C           -4.52590173343158        0.44646478059136        1.61548033727332
O           -4.18930096771997        1.45935690167375        0.72080001178922
C           -3.88423067385809        1.05820295429477       -0.77232153396265
C           -5.24318322950789        0.46472938200072       -1.27899474014612
O           -3.50383490189230        2.10873403685290       -1.42333402256466
C           -2.76918264475489       -0.05002897674860       -0.65748401726004
N           -1.73103616388135        0.32636120769110        0.14761387919917
C           -0.68205186992655       -0.41118436178855        0.27977344832262
C            0.45729331206589        0.00045656937099        1.18892439721927
C            0.19521869765412        1.40703340049959        1.73486741608198
C            0.61786560641094       -1.00681869196505        2.33678117528608
N            1.68865558601893        0.00484597284601        0.37185914665997
C            2.90765119945278        0.32088424543962        0.83295425266922
O            3.18176546470573        0.67138401812988        1.97106104806750
C            3.92681952268756        0.21193768648315       -0.24988968096079
N            3.69006020102640       -0.07133083933996       -1.49528984849586
N            4.89259600652613       -0.05088383407893       -2.13987764739951
C            5.78436026482766        0.24363587779691       -1.24593966719473
C            7.24403124447211        0.38625517647754       -1.43927602512771
O            5.23910301051342        0.42417022240740       -0.03298887415346
N           -0.55481896057366       -1.60346633419811       -0.40518874566391
C           -1.51852018541114       -2.08462875053435       -1.26238304498038
O           -1.31361050023839       -3.17059169083758       -1.83259275343427
C           -2.73623748037703       -1.23339135762887       -1.42080015064378
O           -3.64484603320738       -1.63732679974509       -2.21136978983407
H           -5.58786317223588        0.14745101877781        1.54945675737183
H           -4.35451577682795        0.81089624279757        2.63835014841389
H           -3.91435707347491       -0.46429004526375        1.48387670274246
H           -5.50148691392211       -0.47829152721817       -0.80064326164088
H           -6.02579428578408        1.19875881776009       -1.08249996516176
H           -5.17428048172066        0.31235352938749       -2.35524975361890
H            0.15945704480939        2.12550885363306        0.91588408057841
H           -0.76676165884493        1.41373127020862        2.24688822759081
H            0.97388052659777        1.69912051041038        2.43583757760772
H            1.41410113258774       -0.69638571373919        3.01066866244955
H            0.85649365258019       -1.99303754391571        1.94265728332280
H           -0.31464302666091       -1.06703459631895        2.89650593272105
H            1.62097346278436       -0.31063966468299       -0.58632369114739
H            7.55975927799764        1.39560806563227       -1.17434870918112
H            7.77533580250610       -0.31273698737222       -0.79334795674749
H            7.49676518317728        0.18651167823155       -2.47817478658277
H            0.25427053484320       -2.18232470402313       -0.26540381945904
