33
 energy: -57.861337870112 gnorm: 0.000571287480 xtb: 6.5.1 (579679a)
C            3.81400521068475       -2.67545566227376       -0.19409129932756
O            2.56565169536735       -1.96213658638697       -0.17571490169556
C            2.63001048684089       -0.65635139738490       -0.07667502593949
O            3.66373109409753       -0.02296914490125        0.00538173930357
C            1.29118523393521        0.01639813898565       -0.07445251413504
N            0.19538667914329       -0.75473730766009       -0.15934115091530
C           -0.99187291497080       -0.21075364710914       -0.14869713527271
C           -2.20084697273427       -1.12147572094820       -0.26605084917869
C           -3.49734360799629       -0.36011340415351       -0.53392458923905
C           -2.30021688592265       -1.94781369647544        1.02513953319617
N           -1.95143366611833       -2.02684067495328       -1.37898659608986
N           -1.11724818133074        1.14210983936226       -0.05095912760123
C           -0.07218642387800        1.98364649412871        0.02537192935667
O           -0.40875842456207        3.24445472340255        0.10765549023703
C            0.54973817089462        4.31318514368212        0.21090264183633
C            1.22221655268666        1.40637022883621        0.01684660582433
O            2.28740913960380        2.19409153634650        0.09973494530054
H            4.36671374320450       -2.47180966341598        0.72484304600818
H            4.40433444106027       -2.35695338852636       -1.05516478716633
H            3.56236877311239       -3.73106826173952       -0.26785764973819
H           -3.39759798441520        0.26269393482957       -1.42157567615560
H           -4.29801460249923       -1.07905306898903       -0.70467387187880
H           -3.76579408729076        0.26352651728055        0.31707906034641
H           -3.09561355757856       -2.68364768845704        0.91582165652721
H           -1.35836200990931       -2.46363504220294        1.20755816245692
H           -2.52103287494701       -1.30082365319154        1.87225225232102
H           -1.90420669665525       -1.49521220241497       -2.23718503590941
H           -1.05561108198098       -2.48108393434940       -1.24270766831773
H           -2.03210816121950        1.57699711434884       -0.02975994389633
H            1.14428343020814        4.19741565447581        1.11765945936434
H           -0.04483746804108        5.22450632884349        0.25866348178176
H            1.19630388886100        4.32473034894472       -0.66690228588516
H            3.11974506235045        1.65180714206637        0.08967510448229
