46
 energy: -87.014728178943 gnorm: 0.000299579588 xtb: 6.5.1 (579679a)
C           -1.36709620076534        4.20511299008827        0.59220507272576
O           -1.40682329714166        2.79549962865746        0.40633720770993
C           -2.62245915843927        2.21889175412795        0.54632536266901
O           -3.62465585614855        2.88998541475207        0.82253263918373
C           -2.64074200260116        0.78978848453051        0.33413247271415
N           -1.45797398621753        0.14959815984654        0.06126381061983
C           -1.41963393452481       -1.11655937128163       -0.19435733156661
C           -0.01797565333134       -1.68006318776261       -0.46652521188542
C            0.23083402989999       -1.57033919357190       -1.98374332548799
C            0.20604606336446       -3.11259963971633        0.04324289974169
N            0.91322103868653       -0.82146716147274        0.28864436522741
C            2.23520211406053       -0.64315214559723       -0.19482776971209
O            2.91138648787471       -1.76944676857649       -0.63637613021488
C            4.07558553905831       -2.14989695179884        0.09461669598494
C            2.88647906385819        0.55498822672851       -0.01589281672780
N            4.17573990740516        0.85017329041633       -0.28807581066743
N            4.34094663841675        2.17175124701465        0.04977789283943
C            3.21223461032322        2.61288047136612        0.48603226875022
C            2.91211059993958        3.98136269131487        0.97778714041990
O            2.22839477164359        1.66502018485972        0.47979420973869
N           -2.57267979790928       -1.86940286546678       -0.26138400960458
C           -2.63547134917807       -3.23399557187464       -0.77445542495283
C           -3.83104577022830       -1.34360636853089        0.13504629547103
O           -4.81837892782909       -2.08912082782116        0.17458422312656
C           -3.82451311564401        0.05382621106820        0.42647007139664
O           -5.00814818983302        0.62343993614602        0.77003552666074
H           -1.99329516509549        4.70844945714427       -0.15047618032125
H           -1.71939531980679        4.47162315513329        1.59304935491757
H           -0.32894116053744        4.51198729112948        0.47068789995093
H           -0.55470190272119       -2.08628236206836       -2.53283347322332
H            1.18700208516318       -2.01776722728291       -2.24779655605652
H            0.23061204057837       -0.52139581391673       -2.27948123976341
H            1.27219455494989       -3.26498232738664        0.19902303501398
H           -0.30009769570567       -3.26025261674101        0.99620278798131
H           -0.12991217048235       -3.86207179191802       -0.66798326668586
H            0.48997934291098        0.09709455478029        0.44830756869330
H            4.44103133388918       -3.07444860375458       -0.35475372743681
H            3.83946707501463       -2.32859702818935        1.15057504673481
H            4.85302432942592       -1.37832153327668        0.02471640654145
H            2.59464099767951        3.95218657888018        2.02090209408405
H            2.10807741816975        4.43092986037657        0.39372591419432
H            3.80356581836602        4.59892716480157        0.89283238110217
H           -1.94448010931151       -3.36084149061061       -1.60254380375679
H           -3.64919780567706       -3.41291570522892       -1.13613160894227
H           -2.41829469116305       -3.95704953777338        0.01249805707210
H           -4.86186260038789        1.59105633845390        0.89629098573626
