33
 energy: -58.531001854144 gnorm: 0.000983500871 xtb: 6.5.1 (579679a)
C            3.78419101088413       -2.77085722409248       -0.04326832248094
O            2.52655748844777       -2.12991172569949       -0.09932069765520
C            2.58112620893521       -0.73848251500631       -0.29357828566105
O            3.72250965709968       -0.19684508962093       -0.44711139043469
C            1.36974574170427       -0.08176079019636       -0.31836447848108
C            1.31645712144093        1.37856676563847       -0.45325132449280
O            2.50400822330735        2.06654289941773       -0.45391098302376
C            0.12659671455707        1.99678652179345       -0.49484197362865
O           -0.13208454879129        3.36368020623916       -0.55714688535041
C            0.59619793842705        4.18193584066251        0.34486646766042
N           -1.07929985298478        1.21731216134535       -0.55976700308442
C           -0.94501964241426       -0.11885356429621       -0.12771255768604
C           -2.26610442717326       -0.81135561279965        0.15375786471600
C           -2.02939319956247       -2.11273656591154        0.93133687200494
C           -2.96763338322708       -1.10392965887823       -1.18087474163704
N           -3.11484951118040        0.10909950477939        0.91902269539332
N            0.15443920696767       -0.75474413456997       -0.06499684608980
H            4.39522567609368       -2.38398245117015        0.78290805901757
H            3.59955594370498       -3.83503971441101        0.11745433590356
H            4.34516035063791       -2.64088749467869       -0.97828073752115
H            3.21722441427454        1.34667531431888       -0.44396975410338
H            1.63889673519835        4.30621036484024        0.02318211469899
H            0.58773842725875        3.76670884613927        1.36113996920053
H            0.10882294670445        5.15986413287211        0.35550945283648
H           -1.87630436156678        1.68404953783001       -0.13854765183702
H           -1.53809067833133       -1.89588690339666        1.87974221264966
H           -2.97716642698967       -2.60991102815444        1.13105347277608
H           -1.38880401417897       -2.78022562391966        0.35359807459909
H           -3.92488554000490       -1.59419030892088       -1.00610729202702
H           -2.34782415257958       -1.75574537653159       -1.79734581600501
H           -3.14410485086047       -0.17157342963939       -1.71797385182412
H           -2.78503573953209        0.15985723169712        1.87412328311731
H           -4.05785147626698       -0.25036811567999        0.94867671845063
