33
 energy: -57.869494594582 gnorm: 0.000329901899 xtb: 6.5.1 (579679a)
C            4.40319423572662        0.83109821862677       -0.66090972955031
O            3.54831695644432       -0.23987925726839       -0.24463332866386
C            2.24263236013874       -0.02590331447328       -0.33560599455608
O            1.76961861428369        1.01315061815327       -0.74852206085174
C            1.41269131019791       -1.18065135278138        0.11065949343116
C            1.89032929642759       -2.36889423990913        0.59153492485351
O            3.18562000348720       -2.65895072012679        0.74615624648213
C            0.96323925196728       -3.43269247256390        0.97651170392901
O            1.33430338604182       -4.51114579365813        1.41280777654186
N           -0.35967235348496       -3.11259432889860        0.79595997258572
C           -0.77356020872353       -1.90152573946518        0.32074312888209
C           -2.24368064999937       -1.69412926025160        0.18715367515771
C           -2.16647427967119        2.50181088469014       -0.45681726994163
C           -0.79813723533532        2.19375263345742       -0.01906655463671
C           -3.29398980591832        2.36971606612326        0.48995997755667
N           -2.39314690973746        2.87645763326023       -1.67200682803086
N            0.05553778253146       -0.96860069284700       -0.00599816197168
H            4.22923694359512        1.05883535003667       -1.71500920320464
H            5.42574526194089        0.49098666651202       -0.50806903047610
H            4.20293609377912        1.72197284646309       -0.06160901630437
H            3.26579355707697       -3.56221841835599        1.10706738365084
H           -1.04254515292206       -3.81183143793960        1.04119434595780
H           -2.72488391522729       -1.76239971734371        1.16267697042241
H           -2.67829289803860       -2.45715167639741       -0.45843165921647
H           -2.43453389447932       -0.71217225285682       -0.23823697489130
H           -0.64162946046857        1.10865571849177       -0.12282946383489
H           -0.04624183622091        2.68541664701478       -0.63305556807181
H           -0.65617334975595        2.43439142069871        1.03283883957879
H           -3.16635488752239        1.48232388908879        1.10917706049480
H           -3.28126267920482        3.23393442630917        1.15905031530358
H           -4.25431062296099        2.33742901560764       -0.02005572965189
H           -1.64921311177103        2.99772226121715       -2.34075956556239
H           -3.32509280218001        3.06308337936593       -2.00187367542458
