47
 energy: -79.490817028479 gnorm: 0.000670402739 xtb: 6.5.1 (579679a)
C           -4.34385477791565       -0.91337955318688       -0.18515551211810
N           -2.90820932850742       -0.95303249697373       -0.47611718241570
C           -2.45618657610329       -2.21486968362509       -1.00367028582246
O           -3.24071758636755       -3.03967512710399       -1.36591104515859
C           -0.96423808934579       -2.44456122800814       -0.94962841960830
C           -0.69977871316013       -3.05185139586208        0.46765369207556
O           -0.55504171225537       -3.31712626479309       -1.94749233931765
C           -0.20508760790867       -1.16076483485882       -0.96852147251909
C            1.28976943846001       -1.15634619813944       -1.18553272482471
O            1.97622026843356       -2.14341589068225       -0.99687878952195
N            1.73984291358842        0.03801114057154       -1.58939668430911
C            3.17041546420847        0.28117353126071       -1.76912002659772
C            3.79027232696539        0.63725784543841       -0.43513458301425
C            4.32847176901817       -0.36281565271548        0.37143249239458
C            4.87618146574281       -0.04981105610313        1.60708132777802
C            4.86610484808903        1.27298500935314        2.01339612945415
F            5.39171993512890        1.58313436223939        3.20682112076054
C            4.33124887050548        2.28797139559775        1.24011398723290
C            3.78702298354882        1.95794115029025        0.00686071917082
N           -0.75826560835750       -0.04294368101680       -0.63479047438754
C           -2.08528309973329        0.07463376958762       -0.35107213676816
C           -2.48558203051960        1.44577678279804        0.14519891030740
C           -1.37462459220714        2.46716123172294       -0.14172238390900
C           -2.69506250904382        1.32493682223565        1.66678725805684
N           -3.72498734711398        1.86795015832088       -0.48177659147113
H           -4.69613409661677        0.11364185276740       -0.25657840448821
H           -4.85733917606845       -1.55051471682367       -0.90363873965818
H           -4.49542680762581       -1.29856927733272        0.82253801465305
H           -1.31391345513615       -3.94313290403484        0.57470904044375
H            0.35387200315323       -3.31971896217771        0.52025935649034
H           -0.94729653071942       -2.33543352301907        1.24624693607169
H           -1.19074646532487       -4.03970255287649       -2.05292801521702
H            1.11138725982474        0.82417395462113       -1.60443088865898
H            3.28003285187040        1.09571126053870       -2.48662803627746
H            3.61657388144142       -0.63201216186866       -2.17286289514931
H            4.31369056085900       -1.39235250629970        0.03286262794540
H            5.29848686627303       -0.81482743694790        2.24568864112773
H            4.33509869804960        3.30949480283325        1.59682839343198
H            3.35657538050527        2.73393467593616       -0.61390875205845
H           -1.70779681643904        3.44949672633619        0.18768386007823
H           -0.46248319738395        2.20161691359760        0.38926227545508
H           -1.16492437947473        2.50353209979736       -1.20865835383100
H           -3.53173765120141        0.66635951847681        1.88839072269194
H           -2.90726919724641        2.31472021204027        2.06683478270960
H           -1.79564101532967        0.93470493119138        2.14017602466880
H           -4.08807808913226        2.67675215842306        0.00179038907759
H           -3.55728432942434        2.11378479848426       -1.44680196496794
