42
 energy: -83.635262338962 gnorm: 0.000227745901 xtb: 6.5.1 (579679a)
C           -6.27366689542765        0.77249035147918        1.28228952514985
O           -5.15158689899385        0.47727653885817        0.48358262711940
C           -3.93807060887616        0.32700684837375        1.19837500419188
O           -3.97754525922750        0.45473703853561        2.44423411317458
C           -2.82787253130396        0.05324424142779        0.39928642476072
N           -1.60113937498001       -0.00364997928365        1.04186919682048
C           -0.52232351423025       -0.21788385263720        0.36212873397856
C            0.79296708492050       -0.19724340818443        1.14390665177331
C            0.83946631877983       -1.38746011033245        2.11584987585114
C            0.90525061488255        1.12486731517231        1.91645730405971
N            1.87492903921131       -0.30741662812086        0.16879956743825
C            3.18239215235270       -0.27358571255103        0.43797696885355
O            3.68741914901789       -0.16115473742408        1.55543512695757
C            3.99181742084416       -0.37894028802826       -0.80260847417887
N            3.53296141292975       -0.49747296526534       -2.01778899239694
N            4.61829015868736       -0.53903544885192       -2.84720286368093
C            5.66542931784742       -0.44242099918347       -2.09189833587329
C            7.08372015220972       -0.42867636512801       -2.51679340985416
O            5.34574487033080       -0.33896539864742       -0.79023938757593
N           -0.41581580442686       -0.53112548371681       -0.97141552701784
C           -1.52217239052514       -0.56897639836988       -1.69686168160417
O           -1.56321154204160       -0.98998797982707       -2.87821337361934
C           -2.87310812853412       -0.05514186746381       -1.10928182803703
C           -3.15473296062365        1.31685536984580       -1.77289017031683
O           -3.87989844260441       -0.98482881592270       -1.54574170943310
H           -6.14303960518624        1.71564825425071        1.83070367401924
H           -6.47229970020787       -0.02275089079559        2.01409174781436
H           -7.13550232414187        0.86667991098439        0.61825225908291
H            0.83533827130568       -2.32523193218322        1.56021601494829
H            1.73441124884004       -1.34949135527476        2.73606973010952
H           -0.04125037348913       -1.35293153383174        2.75749038671148
H            1.78445102878278        1.13370704333631        2.55911480411358
H            0.96794175551060        1.96046588383189        1.21931121900389
H            0.01175929619383        1.24601598990184        2.52993290628049
H            1.55241642651351       -0.43669014524151       -0.79536815108790
H            7.53236928166482        0.53926351369438       -2.29350100919879
H            7.14600391224912       -0.61475760286224       -3.58592083986401
H            7.64512966608554       -1.19164120508770       -1.97918514635486
H           -4.14933917232333        1.66885417511174       -1.50095974957159
H           -2.41592239890073        2.04757343919913       -1.44379885615728
H           -3.10074573978720        1.21904320678542       -2.85778052350124
H           -3.57096291332431       -1.32626801657582       -2.40296683288308
