42
 energy: -83.615118961752 gnorm: 0.000560516024 xtb: 6.5.1 (579679a)
C           -2.82187779014298        2.11502457516697        2.52421787303802
O           -2.38896751236214        1.25947780360138        1.47491202190239
C           -2.92641854998547        1.50619911068832        0.25201055419660
O           -3.71148104650956        2.42960677835954        0.07964474224902
C           -2.56993110790655        0.46818321675837       -0.79632402182699
C           -2.65321808954322        1.08984063569676       -2.19360131548078
N           -1.24046472428856       -0.08010622861367       -0.58450046460426
C           -1.11188889180388       -1.03417483886696        0.26419501807158
C            0.28552372446490       -1.53849401956792        0.61496982448048
C            0.55886051271817       -1.23295736198706        2.09905530187255
C            0.39737407668020       -3.04638766199731        0.34378962695473
N            1.22083029748690       -0.82321631516096       -0.24104996143526
C            2.59185156516103       -0.86260635165607       -0.06463512237645
O            3.17328723281230       -1.74078121658067        0.60746132633922
C            3.24690192845289        0.18863249974757       -0.78992196430981
N            2.65030755518864        1.14426103294559       -1.50490349060425
N            3.64778475110603        1.94317660581970       -1.99346598838369
C            4.76966027600089        1.46043830381458       -1.57034886511017
C            6.12962386580768        1.99118684673575       -1.83655344772290
O            4.61637521022668        0.35354690325066       -0.80510637398217
N           -2.16072424304284       -1.60745568432667        0.90989194967603
C           -3.49839229823065       -1.56030639311875        0.37247731547142
O           -4.28485207098664       -2.47354731460363        0.76568480740899
C           -3.73111481457199       -0.54680309814518       -0.57693648024480
O           -4.80858068180901       -0.38411190388090       -1.24920869603012
H           -2.57528450312996        3.15731042975586        2.29867402527883
H           -2.30101484665052        1.80288028983086        3.42808783797085
H           -3.90338113239945        2.03285877577712        2.67275722233437
H           -1.88743375866671        1.85579998588122       -2.31418923098524
H           -2.50295141273032        0.31861796171094       -2.94866221689458
H           -3.63523005973655        1.53955006560544       -2.33902581014167
H            1.53966073278929       -1.60606324608380        2.38879829692106
H           -0.19360618710219       -1.71320611648283        2.72195539567802
H            0.52290267387039       -0.15709577924053        2.26914584256886
H            1.39796855364721       -3.39458646560053        0.59561645523144
H           -0.32276455454671       -3.59696736360895        0.94655066470188
H            0.20800569689613       -3.25045811574384       -0.70996788778677
H            0.84394335837684        0.02539695873560       -0.66086147589930
H            6.73550960979896        1.24568011473242       -2.35200177593899
H            6.05693723002796        2.88366689124318       -2.45346660269142
H            6.62943134188331        2.24024073579703       -0.90042285045420
H           -1.99315791725344       -2.40224904638739        1.50468194055382
