43
 energy: -83.829579039602 gnorm: 0.000594656015 xtb: 6.5.1 (579679a)
C            6.28420716591451        0.91360125141872       -1.60037886129251
O            5.01831645132828        0.57927387326379       -1.05088656341796
C            4.82922309173960        0.94383012703375        0.25406501254487
O            5.72732536702105        1.53773916185317        0.87905728482674
C            3.55667652238550        0.57958474019795        0.80045442015787
N            2.65471229760652       -0.07950512025990       -0.02111688314970
C            1.51163561443682       -0.42312485629677        0.46001223735345
C            0.53049811904586       -1.20895556516683       -0.39340886534560
C            0.74411480905545       -0.86796474815091       -1.87541429725614
C            0.81491042970833       -2.69777103213533       -0.12820030055843
N           -0.81695494100593       -0.85278301877204        0.05709929788754
C           -1.94286826976468       -1.40570228589422       -0.63988201780843
O           -1.87218006377379       -2.48160400022324       -1.28577112530374
C           -3.09089669041095       -0.63968448553129       -0.44472139269481
N           -3.20311796687700        0.55365401873802        0.24097102056719
N           -4.48965262620185        0.88133869499688        0.10214540855044
C           -4.98166860182447        2.09652691104381        0.70803761753395
C           -5.17243075798639        0.00774799454092       -0.60050194009406
C           -6.61444998023944        0.03469502590483       -0.93753690860436
O           -4.36301731136048       -0.99248965119013       -0.98864209464207
N            1.15419457019675       -0.18940081202810        1.75849935766231
C            1.97013859766547        0.48209601944814        2.68754407096847
O            1.54596252318091        0.65885223449249        3.84069972879236
C            3.22560787064982        0.87072010970669        2.14106321694542
O            4.09861447152439        1.52822773712780        2.95802799037320
H            6.44434626072531        1.99650014635432       -1.57945439147867
H            7.09081957919426        0.42770152993477       -1.04159868102962
H            6.28725845090201        0.56131844784605       -2.63147425006070
H            1.78386959835003       -1.05223135165342       -2.14507062461910
H            0.09755026701234       -1.48133527992036       -2.50102607420102
H            0.51896169421590        0.18348265642096       -2.05225071929179
H            0.20991338645962       -3.32986834683547       -0.77513224672236
H            0.58998645374907       -2.93583669858275        0.91100148792206
H            1.86835392846089       -2.90365228655969       -0.31838555900431
H           -0.92130278595873        0.15286793009262        0.14649814501203
H           -5.49006432348887        2.69761144225588       -0.04367030137922
H           -5.68034975396928        1.84988846711550        1.50656479210336
H           -4.13057733387198        2.64035081147528        1.11081190344089
H           -7.22331449991506       -0.12816180629646       -0.04641594411756
H           -6.89222117079381        0.99994466341460       -1.36044141536973
H           -6.82833535981564       -0.75053651116454       -1.65941143997268
H            0.24063394012178       -0.47692713997892        2.07635958240475
H            4.91557197662001        1.71998400195772        2.43443032236582
