20
 energy: -37.628687456529 gnorm: 0.000848193334 xtb: 6.5.1 (579679a)
C           -3.33814341964337        1.48823787445267       -0.45313123435418
O           -2.84276103576218        0.22695828883344        0.04824580885956
C           -1.61120616748196       -0.07228696275652        0.02084723136296
C           -1.19436028718491       -1.37791626127044        0.55343021120313
O           -0.79841574740917        0.81271592852197       -0.48287345978352
C            0.54364035532938        0.72673329288420       -0.62308915630054
N            1.27567036411189        1.64997000440404       -1.13840941510875
N            2.54965808280413        1.16789607613756       -1.09511684091389
C            2.50328614946005       -0.00933163961908       -0.55980833115817
C            3.61578956521504       -0.94401778722217       -0.30278020613467
O            1.23149913234631       -0.35339358299594       -0.23143602635103
H           -4.40313808022517        1.49257241250794       -0.23476197788488
H           -2.82309324059293        2.30281524156038        0.05489904876897
H           -3.15308498316330        1.53774302901543       -1.52605494892271
H           -2.06503549398134       -1.93047757895516        0.89988856049934
H           -0.48772927439228       -1.22838829991398        1.37168761899126
H           -0.66865194576773       -1.93859310040774       -0.22122600202816
H            4.56152331658391       -0.45769845551156       -0.53224598113069
H            3.50209850226543       -1.83319163563593       -0.92420026558662
H            3.60245420748946       -1.26034484403037        0.73983736597317
