43
 energy: -83.882340094590 gnorm: 0.000493509007 xtb: 6.5.1 (579679a)
C           -3.39002663759853        3.61622269421964       -2.30838247041268
O           -3.06422908258765        2.74345567075841       -1.22764257457930
C           -2.11308396723937        1.82118243133925       -1.47754866443492
O           -1.57449722159670        1.75359680803718       -2.56431750926986
C           -1.80982486243650        0.92202272331091       -0.32664128538986
C           -2.03430819776353        1.27698958975520        1.01039248775095
O           -2.64247932726760        2.47414286834914        1.40935563534069
C           -1.44730159215867        0.49488917773643        2.04648973137939
O           -1.45729694361603        0.73349054886831        3.26360564060849
N           -0.69799939214778       -0.60508646479359        1.58361967510937
C           -1.06709399759347       -1.22487576177327        0.31510168219420
C           -2.36393983544310       -2.04645367202865        0.48969728014842
C            0.13525127492062       -2.10680266424729       -0.15929701556033
C           -0.09011549428792       -2.59580064189389       -1.59437554620612
C            0.42149387570407       -3.29688382232436        0.76346964056508
N            1.28510224673543       -1.19273928090379       -0.12299151604844
C            2.52978913041983       -1.49452232283675       -0.49743524975996
O            2.89923544243922       -2.54400628417530       -1.01294909118535
C            3.49792852536838       -0.38547022458086       -0.24687052353636
N            4.74983946749208       -0.34419752826283       -0.58623251864540
N            5.23847714810161        0.85325053426893       -0.14807693428561
C            4.25451584536480        1.46633507367611        0.43207674773221
C            4.27693212887576        2.79712940335483        1.07891699126019
O            3.12563337895767        0.73943091791781        0.40231398986633
N           -1.27403755297331       -0.22728338435571       -0.71079202599300
H           -2.50928203682906        4.18718774543171       -2.61514797816643
H           -3.75861744105782        3.04113338566711       -3.16213936813796
H           -4.16583117282473        4.28969197029302       -1.95062380803652
H           -3.37566653708132        2.69472903966454        0.82208994463082
H           -0.51975587367989       -1.27117713171203        2.32259605540991
H           -3.17481187269559       -1.37167532136658        0.76248569071456
H           -2.62675193483365       -2.54395497584887       -0.44134696956996
H           -2.25145280727953       -2.78833139616445        1.27729831775836
H           -0.92385430567606       -3.29519558153096       -1.61879182554159
H            0.79531353680153       -3.10672972896369       -1.96885074735555
H           -0.31996086285608       -1.74919334389718       -2.24205564261835
H           -0.41989704103676       -3.98666088238236        0.76135410444640
H            1.30309811428105       -3.83203998333461        0.41123542439468
H            0.60464655204746       -2.96462793702342        1.78382840029791
H            1.11882349592222       -0.32037544646449        0.36815610717107
H            5.27025045484899        3.22863136555718        0.98698986133524
H            3.54771659268357        3.45671407801167        0.60896656985175
H            4.01807077959530        2.70385675464438        2.13348328675355
