47
 energy: -79.547098921469 gnorm: 0.000644709159 xtb: 6.5.1 (579679a)
C           -2.72991526669637       -1.73336268944742        4.02864954804225
N           -1.80259455205801       -1.10485373214634        3.08722511050132
C           -0.54325735315449       -0.77116608163021        3.54966024722115
O           -0.17259073211398       -0.98073265442210        4.69891483780340
C            0.32157749105558       -0.14550960278446        2.56225561204957
O            1.55486020383196        0.16637434769693        3.00381511476700
C           -0.11633490089889        0.08672698104633        1.29098985871666
C            0.65738384725574        0.69589780235010        0.16908416140582
O            0.21526843441530        0.66898033220307       -0.98688273418569
N            1.81912322671830        1.27567257363805        0.48013528767176
C            2.67693159441100        1.86290580926975       -0.54680133159469
C            3.72196179407547        0.86263702142111       -0.99199022017653
C            5.05135472945002        1.00765956517911       -0.60533210170259
C            6.00703341124529        0.08157937212912       -1.00223013339038
C            5.60118375114444       -0.98539934251774       -1.78262409302326
F            6.51790787397519       -1.88613671289714       -2.16961818873497
C            4.28797592082950       -1.16149355721869       -2.18183838288874
C            3.34745731326658       -0.22508662434866       -1.77910029830389
N           -1.38766011841651       -0.29046956016895        0.93566175198578
C           -2.17402684392734       -0.85576011515805        1.79675636070675
C           -3.54314511178649       -1.25066656576907        1.35072067293004
C           -2.94127765004108        0.57584111111294       -2.08808445808457
C           -2.66489703332176        1.79338905612653       -1.29287726369709
C           -4.16500410238906        0.47508306903992       -2.91029250217997
N           -2.09751993655534       -0.39093701009680       -2.03839791594835
H           -3.00137244148628       -2.72470942026198        3.66863084419298
H           -2.22973648153030       -1.81377018859870        4.99300557326195
H           -3.62382704605984       -1.11919924182052        4.12503437441858
H            1.62493950622495       -0.09488941704655        3.94307926376120
H            2.16258046627094        1.27148515870898        1.42765320239776
H            3.14656480032308        2.75439772679654       -0.12490936216679
H            2.04101834797441        2.15207545053218       -1.38838076374250
H            5.34717782873203        1.85054205972652        0.00806432513595
H            7.04411038111592        0.18367396555282       -0.70974892686344
H            4.01046793449357       -2.01045623658669       -2.79290980501716
H            2.31296177385125       -0.33795938496773       -2.07912328829579
H           -3.70076215749463       -2.32114343644813        1.48263282705085
H           -4.30493802129807       -0.72001301984440        1.92234210596741
H           -3.65180907699139       -1.00254034396402        0.29729304617693
H           -3.49610832475263        2.49313172499722       -1.31927201219889
H           -1.76425107336630        2.27467321730415       -1.67916828323911
H           -2.44563934005412        1.50187653430539       -0.26384623913339
H           -4.22391097573769       -0.47362399688562       -3.43957182310181
H           -5.03856577486762        0.58860430504476       -2.26615811613171
H           -4.18747645480731        1.29871965373073       -3.62595750686248
H           -2.21552469737829       -1.24440385602400       -2.55635371500355
H           -1.24770016340773       -0.27764504684908       -1.46359566054310
