29
 energy: -54.517348220980 gnorm: 0.000505702875 xtb: 6.5.1 (579679a)
C            3.78043939694216       -0.50627701440722        2.15915926719220
O            2.59340675037434       -0.27901622025525        1.39652978056569
C            2.69170282268051        0.59651053687355        0.39253371428863
O            3.72123252078210        1.16922801553254        0.11784698397729
C            1.39628644528951        0.77317047705455       -0.32508869445395
N            0.33792415510132        0.03404135724029        0.14632938922036
C           -0.81689751800037        0.14951787448155       -0.41961686232763
C           -1.99244403091036       -0.68677705605506        0.03813219921748
C           -1.99850033035852       -0.79001681762903        1.56881634667719
C           -1.85083952650196       -2.07713291355554       -0.59724488146057
N           -3.21232319894993       -0.06269541469045       -0.46359728395008
N           -1.03164987605155        0.97132187609806       -1.48388784579050
C           -0.05784637252167        1.75356235963967       -2.04319455969624
O           -0.25597530214851        2.49481082547122       -2.99771022084650
C            1.24310171098177        1.61878381426220       -1.39213458788653
O            2.23028256601602        2.36463823825339       -1.90575787717014
H            4.58579343942179       -0.85829593683484        1.50953662758056
H            4.09303556133743        0.41777339215350        2.65242250740976
H            3.53514804326045       -1.26417731215336        2.90034948833185
H           -1.05819191361217       -1.21967850473153        1.91379730496622
H           -2.11800890515926        0.19816585200543        2.01076196259035
H           -2.82323111083359       -1.42215634869144        1.89163725231200
H           -2.65856320317007       -2.72285258116873       -0.25691789393817
H           -0.89748280843593       -2.52083229152243       -0.31194511921349
H           -1.89641016498196       -1.99651075585780       -1.68272441209241
H           -3.47606502931232        0.70509171925869        0.13868340557379
H           -3.96771973400458       -0.73256039579491       -0.45022928204540
H           -1.97501947058479        1.00904127709332       -1.85492657135144
H            1.87881508334583        2.88332194793050       -2.65156013768185
