21
 energy: -30.830556564386 gnorm: 0.000404470691 xtb: 6.5.1 (579679a)
C           -2.27679556929949        0.32991696727245        0.92428064441002
N           -2.03956715982048       -0.72235225350211       -0.09212769123959
C           -1.07801354572257       -0.30542477593304       -1.16465007623880
C            0.28966103382302       -0.06568400627730       -0.58227939181923
C            1.08314802735000       -1.15084380178054       -0.21044053243221
C            2.34472866794487       -0.94657806526377        0.32704459804290
C            2.79137930905613        0.35527486435885        0.47804401714017
F            4.00763514493526        0.55992167332031        0.99122493165984
C            2.02895038557436        1.45287876695047        0.11827401391843
C            0.76717436722829        1.23301708557610       -0.41491706905962
H           -2.68525736469106        1.20600079551222        0.42659906040483
H           -1.32967381850003        0.56955564859254        1.40146969700190
H           -2.98406498261144       -0.06056081928389        1.65164451858460
H           -1.68650458454281       -1.55927944664296        0.36618624973173
H           -2.92307000889527       -0.96159027557177       -0.53142308922648
H           -1.48793393327392        0.59304949555483       -1.62730244121163
H           -1.06604584799393       -1.12030022854791       -1.89079376628092
H            0.71038351316862       -2.15881371064361       -0.34324178347081
H            2.97037108218296       -1.77907648765081        0.62194645362451
H            2.41308823226052        2.45563549160070        0.25417563241291
H            0.15040705182700        2.07525208235917       -0.70371397595257
