46
 energy: -87.023144580102 gnorm: 0.000371288298 xtb: 6.5.1 (579679a)
C            5.95048128416403        3.09997626688149        1.01651829690093
O            5.18906490046365        2.18637765958893        0.23378831502909
C            4.02056909616612        1.77531768379301        0.77399792730892
O            3.64420004398530        2.17001955515590        1.86692428242552
C            3.27628092791078        0.83265485251830       -0.06968028912296
N            2.07945632968933        0.42587517073685        0.45955659057753
C            1.29892934739541       -0.40472869084748       -0.15288219689199
C            0.02728050952961       -0.80614756310103        0.58034687727090
C           -0.12839076390113        0.06801107285128        1.83778010126020
C            0.11385565296068       -2.28066216063481        0.99833836773511
N           -1.13032970917400       -0.59336097898358       -0.32523013434213
C           -2.41484841557408       -0.80846506370085        0.27961713835511
O           -2.85379619920566       -2.11978959953458        0.38687416455470
C           -3.51101649788932       -2.65046231503854       -0.76256955084554
C           -3.21625511488292        0.28608964896150        0.49072221931342
N           -2.81275159761408        1.56868330521355        0.38857529191216
N           -3.90580995126611        2.33603838280731        0.72569404440511
C           -4.87389844070166        1.53724904020675        1.00932485619135
C           -6.25034192211999        1.89826370116444        1.43630796377207
O           -4.53335605843009        0.21724425979797        0.89011821040978
N            1.62164116759482       -0.91569033569915       -1.39360188129412
C            0.80472935408908       -1.85617974177294       -2.15925720627632
C            2.83118840573503       -0.59437830312812       -2.00350314451901
O            3.15151739936074       -1.08093046930699       -3.09788739883699
C            3.67097453740560        0.32835510098247       -1.29721352439772
O            4.84137210014112        0.64184748989435       -1.90704520050475
H            5.37662385519902        4.01109717959268        1.21061800657308
H            6.23054819101362        2.64609521325195        1.97166068046033
H            6.84430473669987        3.33895851866269        0.44276561630050
H           -0.24087045787101        1.11537836464739        1.55567902268669
H           -1.01439124542701       -0.24460068345409        2.38951285937198
H            0.74446352940359       -0.03479056372635        2.48074097402903
H           -0.73969831867635       -2.54091093872899        1.62258615137518
H            1.02809437572120       -2.44834657451803        1.56734871000936
H            0.11443301058532       -2.93717597606438        0.13133377187583
H           -1.10440990243065        0.38014643116286       -0.63617234421422
H           -4.43473598680419       -2.09866488609634       -0.97570849527799
H           -3.75361435532934       -3.69120932904986       -0.54192417337118
H           -2.85783261398002       -2.61013966266829       -1.64278484365086
H           -6.46649156061415        1.48142702481191        2.42093483003900
H           -6.98502107151412        1.50128703032548        0.73477211084890
H           -6.34444809300659        2.98131924972491        1.47772511823253
H            1.20983180438894       -2.86382550656825       -2.05135828899919
H            0.85208614349972       -1.57095094277656       -3.21095808172795
H           -0.22841274484798       -1.82626019014108       -1.82458467403661
H            4.87879531819274        0.14995827281398       -2.74710507090884
