42
 energy: -82.977371804663 gnorm: 0.000729879047 xtb: 6.5.1 (579679a)
C            5.90914143128965        1.97122628602253       -1.91564716494240
O            4.80515962314936        1.13138017599926       -1.57402535391270
C            3.86552491491861        1.67992302457640       -0.78262623392716
O            3.93276496934083        2.82191941770179       -0.37454912916061
C            2.78927120966039        0.74875554411324       -0.47693284218850
C            2.65764137347654       -0.55730132879337       -0.91134191265848
O            3.21486326179559       -1.38462309549289       -1.57156558349781
C            1.50837141519099       -2.18366559061683        0.65670710625059
C            2.59834246680127       -1.99964667872396        1.64687015653272
O            0.87710707362194       -3.17120244508658        0.44821149175531
N            1.25447464643340       -1.00879546641682       -0.20073615540279
C            0.86752902423168        0.24586338086983        0.48725353136427
C           -0.43163882093640        0.36583329216031        1.23289519281265
C           -0.60430985615593        1.82878660340613        1.66107853509606
C           -0.45617150388369       -0.56757759061795        2.45074606773179
N           -1.50637551297461       -0.00882830615081        0.30157698784246
C           -2.81541969001683        0.00702647648477        0.64814583683650
O           -3.25043701343464        0.20741483700519        1.76635861249652
C           -3.67462083601905       -0.27070933795503       -0.53000797635039
N           -3.26620512301271       -0.49313006779284       -1.74353305757508
N           -4.37954015337302       -0.68609634812910       -2.50307654533263
C           -5.39777226645879       -0.56758104774217       -1.70447580798941
C           -6.83277095278951       -0.67888024475883       -2.04620133823807
O           -5.01638981814829       -0.30548980238843       -0.44608888969799
N            1.72554004751585        1.16305590000015        0.31638948875765
H            6.42524872518918        2.30532488372251       -1.01178210394730
H            5.56313373672497        2.84378436069061       -2.47609970893636
H            6.57844468839889        1.37170200080844       -2.53000866138798
H            2.66407978212948       -0.97162895869821        1.99280906946416
H            2.45055638464877       -2.68122041628716        2.48135795928898
H            3.53579092176752       -2.26031113612799        1.15049079609714
H            0.59000693728494       -1.28677240911216       -0.91972038155207
H           -0.61513853311211        2.47384122590949        0.78409342491793
H            0.22574843039761        2.11721328673029        2.30363242364080
H           -1.53810279615308        1.94704004528795        2.20701717064871
H           -1.35226907358179       -0.38571309346227        3.04097810890478
H           -0.45236659988771       -1.60686657225514        2.12953766764436
H            0.41773313875438       -0.37789966440114        3.07110923485053
H           -1.28743497207655       -0.07732969020561       -0.68021041886635
H           -7.31186274316750       -1.42125432515750       -1.40859788115187
H           -7.32831441230105        0.27813901833459       -1.88081045053351
H           -6.93933152523813       -0.96646914345245       -3.08922226567918
