42
 energy: -82.979838181850 gnorm: 0.000684080991 xtb: 6.5.1 (579679a)
C            6.48433706538580       -0.51942309902044        1.06039272708251
O            5.11384505236048       -0.34117670826101        0.70482302501986
C            4.85863625464770        0.56618889989388       -0.24414985623673
O            5.75184868839329        1.20205301671018       -0.78627946326304
C            3.43007457697194        0.72439563240706       -0.55389124047637
N            2.54545460298586       -0.06757397246992        0.13004043697382
C            1.27615939117457        0.10721083232823       -0.15058076420288
C            0.30291819852233       -0.78298110997089        0.61333674328759
C            0.47978916154457       -0.57854015202326        2.12126603288055
C            0.52931489006667       -2.24868380136614        0.22615631880302
N           -1.03836432310234       -0.35731995566557        0.20262415731717
C           -2.16931240172488       -0.87423168583758        0.63895946317897
O           -2.33703232012362       -1.78330981226442        1.43849908748821
C           -3.38576984583644       -0.21306197680191        0.04394670441682
O           -3.38075727541103        0.78920545534785       -0.81888052333664
C           -4.67169233403969        1.07364602587982       -1.06731409222966
C           -5.04278660700903        2.15229883158688       -1.99887578735443
N           -5.46138828127915        0.28802253194313       -0.39325465877097
N           -4.63783999762626       -0.51655332475466        0.30266059427143
C           -5.17198521742748       -1.53774134680910        1.17797600247205
N            0.74288495178578        0.95984251578173       -1.01769971195651
C            1.55051155416553        1.78707832041470       -1.74867287363453
O            1.09664734814397        2.59687766169144       -2.56692513884433
C            2.99286814400407        1.64029250468077       -1.48509856078638
O            3.82382410762802        2.43867610219083       -2.18647904568298
H            6.90075731662415        0.41605551815906        1.44324194992707
H            6.51071097396249       -1.28580937551247        1.83286216199646
H            7.06363026237756       -0.84007871704953        0.19064957373595
H           -0.16737899177619       -1.25176260483603        2.68009859912658
H            0.24216914477853        0.44987655077662        2.38953571175291
H            1.51921193131610       -0.78080303703825        2.37795466793659
H           -0.11986019751710       -2.90424769582743        0.80373410489135
H            0.32669613900031       -2.39077139548436       -0.83450936728952
H            1.56946609266993       -2.50362166243052        0.42680351791444
H           -1.02182667958483        0.40316131689577       -0.48702123517128
H           -4.58465446676298        3.08915881287433       -1.67914733646365
H           -4.66937194389400        1.92070068189901       -2.99765217559417
H           -6.12440815826951        2.25803241300288       -2.02641239566101
H           -4.83357813789558       -2.51158623151846        0.82774063016311
H           -4.79243138758458       -1.36991133964675        2.18445149235585
H           -6.25540755500432       -1.47028944586521        1.15281268566941
H            4.75409127335680        2.26670282597406       -1.92772316170422
