33
 energy: -57.875238628182 gnorm: 0.000667718645 xtb: 6.5.1 (579679a)
C            2.33994430213468        2.33094169773100        0.59500272017017
N            1.40853476665332        1.19049222587207        0.74162088887716
C            1.79022906023613       -0.10903340363341        0.07858140883710
C            2.32050043331394        0.15084259690135       -1.33310047355457
C            2.81520303164029       -0.82029124124977        0.95584654037646
C            0.47496722087912       -0.85401908297843       -0.03098737576173
N           -0.60908703102794       -0.15619404174824       -0.02925806623042
C           -1.81671392903133       -0.79849214114465       -0.17816318323661
C           -3.03651579480683        0.04282840193370       -0.18268732327420
O           -4.15343275969032       -0.42330134590073       -0.31103562478608
O           -2.79395095263308        1.33540881129830       -0.03930888269959
C           -3.93276940901983        2.20902646144696       -0.03299748803299
C           -1.89585730535667       -2.16206045590267       -0.32258497295774
O           -3.03478529479182       -2.82922779556660       -0.46116723107273
C           -0.66795211968463       -2.97201883841699       -0.33446213915243
O           -0.59642533772547       -4.17620916544340       -0.45669588726946
N            0.48161938072664       -2.20085703518632       -0.19255854341742
H            2.35964473782447        2.64783791427079       -0.44341715793556
H            1.96438901148650        3.13374023686334        1.22450961319969
H            3.32982836488572        2.02765488770037        0.92448483452809
H            0.48107479588366        1.43860362617379        0.36363885836578
H            1.27599209074537        1.00780791659210        1.73327902761612
H            1.61555732388523        0.76260479971076       -1.89454832576113
H            3.28861765155469        0.64584833356161       -1.29748660420290
H            2.43787422337529       -0.80555258603123       -1.84123495808401
H            2.37626412365683       -1.09194323325542        1.91461731177758
H            3.67264426788117       -0.17235090245569        1.12758874369561
H            3.16605331275701       -1.72156576403150        0.45621499773052
H           -4.56334394317065        1.98730842692763        0.83088246083707
H           -3.54150859259721        3.22185343351205        0.03049532478717
H           -4.50893573466090        2.07643059134661       -0.95148763753658
H           -3.80178536194177       -2.20849869239029       -0.44366870439764
H            1.35412246661837       -2.70761463650713       -0.19991015143534
