46
 energy: -87.051322472528 gnorm: 0.000761357991 xtb: 6.5.1 (579679a)
C           -4.08253084641617        3.13851423760175        0.14261353417604
O           -3.34029105761355        2.30968137521885       -0.74913127375341
C           -2.50176207597301        1.41897435047208       -0.18277766589092
O           -2.35725817370992        1.34698122866092        1.02330431567462
C           -1.90561281344793        0.43959315014310       -1.20558222780364
C           -1.58856546741865        1.13058560701269       -2.53698099503257
N           -0.68313546995694       -0.12499552855436       -0.65819156166287
C           -0.72330127553658       -1.15184611008364        0.12150937305198
C            0.65406893527007       -1.57402454372807        0.68013202542075
C            0.69725348901825       -1.74080905568860        2.20528017240464
C            1.13973056144545       -2.83851481038109       -0.04514186227982
N            1.56081718590206       -0.47324988509753        0.33334534640830
C            2.88091085195922       -0.44441799574359        0.52873825045052
O            3.55812214382049       -1.30654456568469        1.07377884884078
C            3.46395727246532        0.82453569680453       -0.00011522627215
N            2.81054522024300        1.78594085756945       -0.57814431798792
N            3.72460584960416        2.74859393822826       -0.89635489409483
C            4.87618285283501        2.31072583129951       -0.49221911681975
C            6.18748335745044        2.98662877064936       -0.60712263320979
O            4.77963121086357        1.10161085867920        0.08232064345565
N           -1.84848708362252       -1.86685617078734        0.37263902922407
C           -1.97559875528890       -2.91901385814683        1.36808490140622
C           -3.00825052675481       -1.71485826353195       -0.52634626275040
O           -3.89090210211940       -2.62051656553557       -0.52120689116905
C           -2.96404964571679       -0.61537291509542       -1.32121527959965
O           -4.00773904487200       -0.36623387096507       -2.24490182729001
H           -4.68418933061494        2.52892457926876        0.82247253375865
H           -3.40753168764706        3.76637004508332        0.73102161119056
H           -4.72978176054367        3.76344514685848       -0.46957972079987
H           -2.50096391737559        1.51395787561220       -2.99081323152200
H           -1.12952013506109        0.41186659960621       -3.21508793387386
H           -0.89502604098309        1.95524474528093       -2.37618887944600
H            1.73068941896146       -1.68867232067448        2.54439865679760
H            0.30410740438277       -2.70599186000224        2.50971617025858
H            0.12954679037662       -0.94813206284307        2.69116237731182
H            0.44515204676995       -3.66131714517270        0.10464281216664
H            1.22351354235198       -2.64003285155609       -1.11316668387073
H            2.11488550305887       -3.13518394771369        0.33762165577505
H            1.11453183790166        0.28189529402344       -0.19440480818187
H            6.63665840522992        3.10284229653021        0.37884871705144
H            6.86415278661720        2.38852421752067       -1.21718792420253
H            6.05406274713183        3.96358418604173       -1.06484948662782
H           -1.22265339292485       -3.69765202346229        1.24457732119061
H           -1.91299240665376       -2.50496799741972        2.37620977424211
H           -2.95945748528645       -3.37772020031538        1.24234301817433
H           -4.63101091812445       -1.10209433997587       -2.15297438430296
