33
 energy: -57.874024751879 gnorm: 0.000633649723 xtb: 6.5.1 (579679a)
C           -1.50671319559345        2.16774231488209       -0.32979240053654
N           -1.58428427169640        1.17100674177784        0.76536481546711
C           -1.82935639769830       -0.25219539076802        0.34106458743403
C           -2.10371405637108       -1.04291497337799        1.62509476820841
C           -3.01349064220425       -0.32606682525163       -0.61733634464903
C           -0.52319240329265       -0.71944119312454       -0.25916128930036
N            0.54988207633512       -0.08148661895358        0.06114906592234
C            1.77128385652021       -0.50405838769118       -0.41558040579533
C            2.95302914387832        0.30334698606915        0.01071746919516
O            4.09209422073904        0.08349960645016       -0.32162864682517
O            2.60076803226934        1.30648852715213        0.81515642912061
C            3.66253958754199        2.13961222820976        1.29767573335744
C            1.85298014928376       -1.60489449668042       -1.22482202788843
O            2.99200222570218       -2.07719035403424       -1.72601956888016
C            0.64302305644783       -2.34547714768156       -1.58815718459253
O            0.65010969093485       -3.33385599418186       -2.29837251721745
N           -0.51769959465110       -1.82538198614887       -1.04991512666157
H           -2.48480929472881        2.27232606636496       -0.78785825881058
H           -0.77102501525045        1.82721722692850       -1.05370271533153
H           -1.19627634036627        3.11097540344223        0.11267344272086
H           -2.30261079038066        1.45608457298457        1.42398843809249
H           -0.67618950658730        1.16917071225982        1.24456909687161
H           -2.19769941626680       -2.10008626900484        1.38305722193537
H           -1.28371522803452       -0.91218768088428        2.32975722280403
H           -3.03040170862704       -0.70107173933846        2.08211073440626
H           -3.31466625747908       -1.36564813468552       -0.73596032797278
H           -2.75750611119971        0.07804795926511       -1.59473719196474
H           -3.85602382305033        0.22728710533634       -0.20646414589136
H            3.20699469470915        2.85557256816316        1.97788327995318
H            4.13903141805950        2.65832740754886        0.46204490290264
H            4.40514487416901        1.53366417304401        1.82302695215410
H            2.80659877262993       -2.86401338903439       -2.27120257825450
H           -1.37610374574120       -2.30440001903875       -1.27462442997434
