20
 energy: -38.338475428141 gnorm: 0.000743565232 xtb: 6.5.1 (579679a)
C           -2.27367188382701        0.87183675230686        0.62522384194424
O           -2.36326920684664        0.67775452009727       -0.75957015731668
C           -1.32969377729217       -0.20257139737244       -1.43142950333085
C           -1.41853713188900       -1.61333054363107       -0.76175678060623
O           -1.46822484917005       -0.19800176298070       -2.70815400022746
C            0.05528175928431        0.42579906189627       -0.99792798982182
N            0.49925976715233        1.61634294019565       -1.25957228668980
N            1.82028714413966        1.65336678433976       -0.85982498737016
C            2.08981466431002        0.48197561799970       -0.39190363875005
C            3.37455709268134        0.00612211410650        0.17579921714987
O            1.02701832369557       -0.34435153957099       -0.44976763013590
H           -1.24091093936989        1.07151319225229        0.95279429348790
H           -2.88571574758285        1.74352668435861        0.88210849501598
H           -2.65226100134561        0.01091628014093        1.19660278612642
H           -2.43117519017735       -1.99189592637715       -0.88597402070410
H           -0.72646395696018       -2.27333382790094       -1.28134218645451
H           -1.16193633261360       -1.58915933001950        0.29437158825260
H            4.13982533505142        0.76500026105607        0.03197486382147
H            3.68222632076735       -0.91950416589367       -0.30885693620491
H            3.26358760999228       -0.19200671500346        1.24194503181401
