42
 energy: -83.587538718063 gnorm: 0.000569543342 xtb: 6.5.1 (579679a)
C            6.59558425093219        2.92242757339636        0.54801329569364
O            5.35938196560612        2.70864631636826       -0.10831780290147
C            4.64426571028911        1.61972084102844        0.31818370150368
O            5.09312523485202        0.91264324590111        1.22345025367960
C            3.38908313737730        1.40766960969122       -0.36433276338883
N            2.70642245120035        0.29052244775427        0.09927099748322
C            1.57135612272367       -0.04124173195177       -0.39494963899992
C            0.82171152871084       -1.26627634040840        0.11123070577075
C            1.68076871389208       -1.94840218563328        1.18513565937162
C            0.58570302142579       -2.22992312175588       -1.07076200383325
N           -0.43535896204934       -0.78992599915741        0.69912639433511
C           -1.45480149718980       -1.79859807599785        0.99516025869147
O           -1.11182947714566       -2.97659736318697        1.36679886806711
C           -2.73405999351028       -1.32837423194262        0.91768080501021
N           -3.94093117945634       -2.01722166243178        1.17007921621294
N           -4.87567374479881       -1.12582684079434        0.87568241224734
C           -6.26291948079764       -1.49598229049906        1.01737330367394
C           -4.42007825505803        0.04473092605702        0.48005835867322
C           -5.20446163389809        1.23566796441118        0.06776922584347
O           -3.05110598965210        0.03333591811245        0.47645992414275
N            0.98352391306488        0.69945203937588       -1.40202180378522
C            1.54964920924052        1.81988501384122       -1.96200778700840
O            0.95283404499808        2.40926184627664       -2.87279932986576
C            2.87712990402975        2.23759739259347       -1.40317600533275
O            3.43613438175439        3.25700053372267       -1.87181374507608
H            7.26352637326996        2.06365208951754        0.41770860931745
H            6.44838417996905        3.08901035073781        1.62103730821439
H            7.04963963336809        3.80699145472623        0.10159011014053
H            1.19380616195856       -2.85265918373806        1.54660685832314
H            1.83167530387106       -1.26760333719937        2.02391678825420
H            2.65347461535798       -2.21197688285875        0.76864248819335
H            0.14929957337286       -3.16250275546813       -0.71452213857959
H            1.53280872853424       -2.44998276214200       -1.56380651815366
H           -0.09219856718791       -1.78425178650562       -1.79792843137103
H           -0.84812195354922       -0.07897632307206        0.10011143864337
H           -6.72470430037986       -0.91260079834708        1.81379971901854
H           -6.79310831595452       -1.30880708637111        0.08476656605988
H           -6.30598594786578       -2.55470089522949        1.26315718500658
H           -5.89346378610700        1.54513832817751        0.85584515892562
H           -4.52172382346897        2.05609192150675       -0.14546338220387
H           -5.79695359324436        1.03143969841830       -0.82721876710399
H            0.09819434151520        0.41154414307393       -1.78640149289540
