42
 energy: -83.619750328719 gnorm: 0.000677878498 xtb: 6.5.1 (579679a)
C           -4.06151888291250       -1.97313354901297        1.84850980082098
O           -3.35651534815979       -1.82391163755506        0.65534794598113
C           -3.89171474909343       -0.66809042663061       -0.29481767393262
C           -4.74829020370462       -1.48122914671670       -1.32001311075578
O           -4.55496613729320        0.23721215727430        0.34498441873221
C           -2.54079449310183       -0.15974223917221       -0.92022407309489
N           -1.66853193810299        0.28764959874334        0.03105540721171
C           -0.52855974368264        0.79816390109477       -0.28639342055823
C            0.41499015402404        1.32262358057586        0.77619333715502
C            0.48268316219655        2.85615308856634        0.70046309265712
C           -0.06335537170167        0.86168086299819        2.15620795617428
N            1.75844082070343        0.76788008428006        0.50468770911659
C            2.84196302167354        1.03470533292469        1.24596645346353
O            2.87346665439480        1.73258349036822        2.25118671212755
C            4.07582208263489        0.37632067386702        0.73144427673574
N            5.26734594078359        0.43057590414423        1.24390953151798
N            6.07732104269743       -0.31609542272932        0.43869042133280
C            5.33021334329933       -0.77847216707774       -0.51500492157048
C            5.74107856729607       -1.63772396617244       -1.64693182774283
O            4.05404308112963       -0.37973166745489       -0.38853673315215
N           -0.15015924476587        0.93644094206110       -1.60723512935274
C           -0.94188293530062        0.53623589129720       -2.65985369892811
O           -0.51341281387039        0.69698676497788       -3.81612644993649
C           -2.26185337888648       -0.06286823031526       -2.29637613696869
O           -3.02142722109009       -0.43773531595761       -3.24431025371307
H           -4.53279052902413       -1.02788981149489        2.17561471908607
H           -4.86056809165260       -2.73513515794825        1.77539735127348
H           -3.37319840632579       -2.29354412169089        2.64464094197210
H           -4.16770179542065       -2.26334667751393       -1.80640774550939
H           -5.57775801471993       -1.93538778047244       -0.77652658747561
H           -5.15588839539944       -0.80496122555750       -2.06987172019895
H           -0.52004333473359        3.26693178785289        0.81319762260465
H            0.88424503171134        3.16393437563964       -0.26345334693454
H            1.11746632843212        3.25519836985479        1.48934355312320
H            0.56937861168187        1.26992469831756        2.94096763432266
H           -1.08770360125172        1.20141677419929        2.30884923864610
H           -0.04544332427601       -0.22647850746782        2.21046624917144
H            1.87518622209240        0.18558846375960       -0.31006833033017
H            6.78476716372629       -1.91753222888271       -1.53013408978558
H            5.12273047494818       -2.53422207527972       -1.68195808838957
H            5.61399362617502       -1.10133904009762       -2.58741742960389
H            0.73894262487618        1.34036165240384       -1.84059660527116
