42
 energy: -82.982221059159 gnorm: 0.000474246873 xtb: 6.5.1 (579679a)
C           -5.89658741814667        1.72916095380527        0.50146975291267
O           -4.69357607171882        0.99616135865017        0.30305851560731
C           -4.61543281504585        0.29042640111158       -0.86178690039811
O           -5.53444218284837        0.30936763140107       -1.66244037938656
C           -3.35803628681787       -0.43704958692298       -0.98783145771244
N           -2.47426953528097       -0.27603429591968        0.05599491474397
C           -1.34424425869657       -0.88335090156626        0.06104911531439
C           -0.40482929544465       -0.70158522833554        1.23973681026014
C           -1.02391344719760        0.28063972026536        2.23498978356180
C           -0.10037900301669       -2.03233330945148        1.93368353490618
N            0.84912212170255       -0.06901032788667        0.76251063569969
C            1.84920572757098       -0.69216806567583        0.14163087404859
O            1.90737816206389       -1.86290571205202       -0.19999484547851
C            2.99974752852660        0.22339722230304       -0.13851944260062
O            2.99704672005129        1.51458295802149        0.17868965998727
C            4.20023341082640        1.99193961343762       -0.18932828413715
C            4.54560270137402        3.40668532379094        0.02872143225072
N            4.93408101216994        1.05816727663971       -0.71555183170930
N            4.17042416953972       -0.05284206198727       -0.67810405482004
C            4.72107924818885       -1.29552539558926       -1.17651331431323
N           -0.95651451297247       -1.71020218110270       -0.96889558774431
C           -1.72078275252339       -1.94299022887552       -2.08632064834114
O           -1.29684414966589       -2.67611285435571       -2.97349311676688
C           -3.06802764282997       -1.25307386072299       -2.11747626053899
O           -3.80919303780392       -1.43273118057474       -3.09592561025278
H           -6.04483400002345        2.45484911235110       -0.30453608974493
H           -5.79662363491091        2.24988536035229        1.45254598779298
H           -6.75859866238549        1.05499528834871        0.53648945399296
H           -0.34127490731737        0.45158846058465        3.06456040714415
H           -1.95710197966282       -0.13107841118950        2.61706610769917
H           -1.24052446845014        1.22842428597411        1.74398693107999
H            0.25738283458283       -2.77945338935886        1.22946602717234
H            0.65538239796541       -1.88249468678627        2.70213744488964
H           -1.01262679413804       -2.40099543127716        2.40132003311507
H            0.96525689953887        0.90865534417274        0.97409154446211
H            3.81261897949565        4.04584822338593       -0.46409919468427
H            4.51631235943665        3.62858312753264        1.09610579785129
H            5.53966538379167        3.60916798661149       -0.36206048559183
H            3.98739656684832       -2.08619379010741       -1.04143182737251
H            5.62955114881830       -1.51130079487851       -0.61655412888643
H            4.96322904375742       -1.16652299498018       -2.23064033138102
H           -0.05205955935346       -2.15657295915256       -0.93548397263285
