42
 energy: -82.950688041523 gnorm: 0.000919098290 xtb: 6.5.1 (579679a)
C            5.98704645651848        2.87399270787362        0.48051752669154
O            4.99082551272221        2.23067729622775       -0.31288205589327
C            4.03396466173984        1.57829541031097        0.35749243444949
O            4.00138794167870        1.54312145217263        1.57302255029842
C            3.04429397106525        0.89694168231540       -0.50589531032387
N            2.11974114214758        0.19509502865058        0.19621114735094
C            1.20644551863132       -0.50273160749297       -0.40604797621018
C            0.22669780657846       -1.30349865866055        0.42805727746628
C            0.37260056543184       -2.80410870160343        0.15204577868848
C            0.46111698729597       -1.01279727432496        1.91075198839234
N           -1.16221436832826       -0.86462713622275        0.13618611201910
C           -1.85144167275949       -1.18330606589125       -0.94982971102847
O           -1.45710463284515       -1.76019726573887       -1.94111154746656
C           -3.36269103519929       -0.73874420676892       -0.90691497176886
C           -4.21834439820925       -2.00053394455783       -1.03537203769154
N           -3.57625151833106        0.19163449509194       -1.96529124054364
N           -3.96139663146723        1.31731133218099       -1.45857110438417
C           -4.02810453212612        1.18351393967657       -0.13287354651300
C           -4.42930203891809        2.22584992776528        0.82172515853798
O           -3.67579158738829       -0.01864131659077        0.26711563651627
N            1.13535638197633       -0.57016449247237       -1.76323450452167
C            1.96713078933592        0.12770778496552       -2.61477061879580
O            1.81402375131367        0.04925409641247       -3.82130233621538
C            3.04495624156027        0.95135315935099       -1.94006002421394
O            3.83279018313440        1.59419501725781       -2.63674636526726
H            6.51592308310174        2.13882722018139        1.09249201401740
H            6.67813993043472        3.35453479449194       -0.20972381413344
H            5.52830272515960        3.61942405355551        1.13492672570045
H            0.25936094957834       -3.02753708419438       -0.90634528340476
H           -0.38418683304865       -3.35060407330025        0.71081931324525
H            1.35945679960645       -3.13079655710677        0.47665712679984
H            1.47353336749401       -1.30620245235616        2.18406534654414
H            0.34237816042898        0.05103883075279        2.11050858241862
H           -0.24825062486337       -1.57402811421042        2.51480719560015
H           -1.65595083448372       -0.44407123315622        0.90690071937693
H           -4.05831405754684       -2.62982982820732       -0.16376883993282
H           -5.26625326836758       -1.71714769992385       -1.09450254680574
H           -3.92140224309079       -2.53233743704273       -1.93690156911042
H           -5.25827575083320        2.80277011390553        0.41368239022583
H           -4.70479634942133        1.77840755401227        1.77349722213735
H           -3.59468784814920        2.91164089121643        0.98477058313475
H            0.41929029844126       -1.14368063854205       -2.19497642538121
