47
 energy: -80.228863870690 gnorm: 0.000402607942 xtb: 6.5.1 (579679a)
C           -2.23246994332929        0.70573168352967       -1.95782873749217
N           -2.35579593738838        1.11419380471173       -0.54907465406621
C           -2.13782595009759        0.02654186274871        0.36581539449992
C           -3.32647771974570       -0.87501568611595        0.68924097315894
C           -3.17093397495609       -2.22757022315380       -0.02530768693278
C           -4.66039694703610       -0.21903272693352        0.32712494844905
N           -3.32889899366635       -1.14272666550435        2.13354720224177
N           -1.03998735607408       -0.19544664729733        0.97261971141611
C            0.11296145810102        0.56649417138502        0.70636025500122
C            1.35540192845676       -0.01921159817030        1.17037981550605
O            1.43643838350995       -1.11128631634694        1.75394234586521
N            2.48923500280665        0.74829181291284        0.97519707112367
C            3.79576726863688        0.13203688050573        1.14138255948129
C            4.18388332283756       -0.67168330953859       -0.08395357777210
C            3.72388945306101       -1.97841161973524       -0.24285429573605
C            4.05491894127533       -2.71415647757405       -1.37154406519573
C            4.85008643109571       -2.11759500152996       -2.33322581962206
F            5.18036110011535       -2.82740440524576       -3.43036054077003
C            5.32488908200510       -0.82517850976459       -2.21172020075330
C            4.98152055386274       -0.10436826929849       -1.07513637819294
C           -0.01751525814968        1.77628343891886        0.03007068596820
O            0.88063965008607        2.54032274854696       -0.40241959030474
C           -1.47881137883320        2.24663153246196       -0.19958527639672
C           -2.02494410175813        2.88684809835737        1.09076786013239
O           -1.47036118341188        3.19845637272662       -1.23008447864227
H           -2.55428378081474        1.52928527480743       -2.59557733385578
H           -1.20218605618904        0.43136898137073       -2.21427415575839
H           -2.88333196090614       -0.14890716914614       -2.13739961614622
H           -2.18927588534505       -2.64884478262202        0.19378231768929
H           -3.26858864728790       -2.10951567347300       -1.10366403232792
H           -3.93783167065382       -2.91927737537767        0.32406260219037
H           -4.71830742084991        0.77848499918906        0.76368098884598
H           -5.48412596795847       -0.82044653287240        0.71193152033702
H           -4.76949586972420       -0.12846543727436       -0.75253420499125
H           -2.37371700988599       -1.35995027393184        2.41354603759092
H           -3.59702828208587       -0.29705519315202        2.62272451125235
H            2.44020316751739        1.48196471084521        0.27680210031885
H            3.76099423830361       -0.51855187515372        2.02218074783426
H            4.52885908199894        0.92438211863407        1.31804335110453
H            3.10235542191114       -2.42597036189352        0.52556001652600
H            3.71027458872057       -3.73155962778233       -1.50460155005933
H            5.94983191035583       -0.39658571852728       -2.98398898362091
H            5.34958445447790        0.90865910064550       -0.95965711448853
H           -0.52053320175958        3.40454626868318       -1.37473331339407
H           -2.02319258943288        2.16505032968472        1.90536598901332
H           -1.40178850496990        3.73770244089469        1.35983880719379
H           -3.04399084683411        3.23094184585879        0.91895579377831
