21
 energy: -31.456069142567 gnorm: 0.000370482868 xtb: 6.5.1 (579679a)
C           -0.29086785634079       -1.38404682003957       -1.19806848789241
C           -0.14930946781933       -0.12798082074294       -0.28436727469771
C           -1.51818804193393        0.62343845774843       -0.27678366044368
N           -2.59345050617803       -0.16826510559315        0.34072096549370
C            0.90468234056616        0.80339217691918       -0.86272576273470
C            2.05647603047689        1.13176112249780       -0.19935823304265
C            2.30950512070502        0.63275270669024        1.07777509371065
F            3.49036478734739        0.99175928265100        1.72989411352330
C            1.38986058082397       -0.18791911810059        1.73532011429167
C            0.22215341968577       -0.55352877635816        1.12649770111196
H           -1.02312224303624       -2.08387923432552       -0.79242264577670
H            0.67184912528401       -1.89307868519596       -1.26116074296212
H           -0.59802233816919       -1.09694679601094       -2.20525936504393
H           -1.39419771904421        1.54004413572385        0.31277988221000
H           -1.79141662907709        0.91755592563744       -1.30395551010577
H           -2.90665039908298       -0.87136030892827       -0.31759487703961
H           -3.38319076942367        0.43887076992333        0.50664517508385
H            0.71053772000129        1.19984988007418       -1.85561334382158
H            2.78333867498280        1.79351420771154       -0.66525076179561
H            1.61044471405919       -0.53007577969528        2.74451149647840
H           -0.50079654382698       -1.17585722058661        1.64841712345295
