46
 energy: -86.300403936742 gnorm: 0.000283008012 xtb: 6.5.1 (579679a)
C           -5.44941390648042        2.22165965187504        3.62347091281191
O           -4.75408073020746        1.87622060300595        2.41899570278846
C           -3.74824126243708        1.01968492429644        2.53642517614612
O           -3.40395268259727        0.52432239852314        3.58310199009197
C           -3.07120815413189        0.72640856294887        1.23210137118390
N           -2.05319181922239       -0.17020571754978        1.32903526546009
C           -1.34993787992506       -0.53425499620524        0.30104182559041
C           -0.28891294170975       -1.59085902165569        0.57148249715974
C           -0.70025789058417       -2.91697260401488       -0.08410081438504
C           -0.12841285551235       -1.78215752078978        2.08684120085947
N            1.00076583281324       -1.10649747158570        0.04963782166436
C            2.10616480912784       -1.87006904875104        0.00558477599624
O            2.20695476967915       -3.04539801172095        0.27653126832552
C            3.30677420732823       -1.08053130833190       -0.44642468136755
N            4.57429231158108       -1.58504388570624       -0.52262372405954
N            5.33796139839732       -0.65380551962937       -0.90691458670581
C            4.59413028392904        0.54326686486976       -1.10796299044909
C            4.65240704794044        0.97921670015200       -2.57666068599964
C            5.06096435577910        1.64634780979253       -0.15090132759759
O            3.25726798301515        0.15577507666691       -0.77548865842869
N           -1.59601477796862       -0.04424904356153       -0.95024547287725
C           -0.87676463167002       -0.40996253840344       -2.17090121621519
C           -2.61688970571020        0.87179337189302       -1.16850188545862
O           -2.86208736850525        1.31656688081669       -2.28016188919553
C           -3.38121521856814        1.26826137972201        0.00932901590835
O           -4.35037562903255        2.15006829248428       -0.20617792183158
H           -6.19558047018657        2.96411017198247        3.34773460334317
H           -5.93008826284974        1.33537322666060        4.04438523373619
H           -4.74929068744298        2.63613464194139        4.35240129783206
H           -1.73493548642948       -3.13077806855861        0.18115196422670
H           -0.61635881092660       -2.86319636013574       -1.16610603119853
H           -0.06999734785369       -3.72730082575046        0.27659711481322
H           -1.06885957536191       -2.13169196539782        2.50927032028101
H            0.14151954532359       -0.83722393787472        2.55407367011089
H            0.65039260838962       -2.51710995852664        2.28031064322327
H            1.10486472088023       -0.11697337463488       -0.10150232393866
H            5.68211927996157        1.21843509895687       -2.83150697807244
H            4.02235821523064        1.85543479203603       -2.70614886991789
H            4.29144458078203        0.16868615941609       -3.20556351221522
H            4.42969999370172        2.52024261353807       -0.29078378499596
H            4.97843744900767        1.29132307666805        0.87410191257339
H            6.09530121537339        1.89337408373039       -0.37789518993907
H           -0.67728685191751        0.50633846621965       -2.72513141367177
H           -1.51274154703922       -1.05961810716613       -2.77245475293652
H            0.05475359741343       -0.90733123472006       -1.93443283934980
H           -4.36248071136005        2.39218867245871       -1.15185503332874
