33
 energy: -57.864486666148 gnorm: 0.000467018587 xtb: 6.5.1 (579679a)
C            3.71500763542340       -2.73740111127104       -0.32239258567406
O            2.49400876038702       -1.99217508965370       -0.17877397145565
C            2.54870021594498       -0.70789100557726       -0.44007992257674
O            3.55180125504136       -0.12006435286219       -0.79331255336413
C            1.24257094749517        0.00180150773218       -0.25780861953488
N            0.17416149698320       -0.72600067741864        0.11353345384680
C           -0.97723387574865       -0.14137209377567        0.29084437084919
C           -2.20023438148161       -0.95027124855117        0.68079643061029
C           -1.78347967056418       -2.03113059978754        1.68628992929165
C           -2.76461942537918       -1.58664112160405       -0.59946601138839
N           -3.22490888862669       -0.11736060334009        1.27806767133137
N           -1.10160053089199        1.20031010363241        0.09954404853719
C           -0.08843215439871        1.99670807249257       -0.27415130834920
O           -0.41362495807097        3.25513309615113       -0.40471488805070
C            0.51586190173261        4.27924254165638       -0.80189724236524
C            1.17284062252018        1.37691948654827       -0.47340915896355
O            2.20906387084748        2.11833642565665       -0.84473689033744
H            3.48558801975848       -3.76056160660365       -0.03327892261428
H            4.48204161898925       -2.31365504715280        0.32842710823108
H            4.05079638753106       -2.69462226374644       -1.36005898885243
H           -1.37684788191835       -1.56786862757518        2.58392864711214
H           -2.65655663884627       -2.62273767684804        1.95678192770547
H           -1.02589341520329       -2.67952629923117        1.24839428624466
H           -2.02489027711287       -2.24716365933214       -1.05004601697892
H           -3.65694732520019       -2.15878811647513       -0.34911674155928
H           -3.02993585291161       -0.81072155749853       -1.31591750390694
H           -2.84749978034535        0.44671043224405        2.02422676714741
H           -3.66364904517750        0.47899815799509        0.59397890067379
H           -2.00066607597691        1.64394394955247        0.24845554067345
H           -0.06566157879432        5.20003142175934       -0.81671137351772
H            1.32744601800065        4.35218421041027       -0.07733202703325
H            0.91277796995076        4.06273455789450       -1.79421303710660
H            3.02001503604467        1.55289979457777       -0.94585131862403
