47
 energy: -79.482383515306 gnorm: 0.000654147149 xtb: 6.5.1 (579679a)
C           -2.53298794273974       -2.37504065102484        0.24288320526768
C           -3.21168245798897       -1.01778414768212        0.49961397378015
C           -3.68081146895885       -0.94374453318726        1.96316621959453
N           -4.35980164086457       -0.85917012936153       -0.37944652378842
C           -2.17077801540721        0.06994664989546        0.30366888544683
N           -1.00291795072371       -0.15009744310325        0.72971321976770
C            0.05987064060883        0.72762910075812        0.67418315036120
C            1.33910929780575        0.12752845750436        1.20730041059786
O            1.31752510781127       -0.92654929914189        1.82247539845267
N            2.45549305607704        0.82726042434329        0.95650330408645
C            3.76586338848416        0.32188113101606        1.36301810659435
C            4.43377952976345       -0.41950561542117        0.22471813963403
C            5.59783126885096        0.07926701417933       -0.35339255744011
C            6.21428957260888       -0.59793256747589       -1.39736442518038
C            5.63898145096158       -1.77208083336885       -1.84733925766090
F            6.22629222759336       -2.43224619521155       -2.85711227548758
C            4.48078939247265       -2.29349825791322       -1.29789012527057
C            3.88063667986567       -1.60682698021367       -0.25307029467605
C           -0.14151370627437        1.99298509663170        0.21680411013758
O            0.81450017209575        2.93036630259211        0.19097206679398
C           -1.44441425486237        2.42553095786778       -0.25106637796484
O           -1.71008259669757        3.53677511570397       -0.60991383898541
N           -2.51656947283408        1.37048708283136       -0.35602906595132
C           -3.77461370157866        1.96560125129153        0.18618443744159
C           -2.64526139704963        1.13611239855042       -1.83104283074253
H           -2.15568306607676       -2.41479932354010       -0.77747966367419
H           -1.70360768785196       -2.52046206879693        0.93412615880545
H           -3.26404355727301       -3.16882179924879        0.38317953849573
H           -4.33595673811446       -1.78870614700025        2.16911850984333
H           -4.22984630040042       -0.02191979470486        2.14352845906184
H           -2.82368640561692       -0.98513505125553        2.63414271468037
H           -4.21831433184746       -1.38258584856493       -1.23346664474810
H           -5.18829656108915       -1.22903639320960        0.06710287977645
H            2.43506144260430        1.64885506327933        0.37821030352689
H            3.61386975703323       -0.34642929012935        2.21693329657068
H            4.37186912572766        1.17522571365817        1.67575352382458
H            6.02952878776745        1.00374277144338        0.01122587739010
H            7.11918376908904       -0.22002889182637       -1.85520361185927
H            4.05988516958150       -3.21388560791590       -1.68117724396162
H            2.97358177768033       -1.99595126719016        0.19392783110456
H            0.48651429070656        3.77023481951226       -0.17248680216390
H           -3.64299360456445        2.13253775609653        1.25189011317964
H           -3.94373565086506        2.90730226448618       -0.33056711828634
H           -4.58641488590835        1.27119064528566       -0.00837086005569
H           -2.77473297527584        2.10349030182486       -2.31092168401919
H           -1.74034669703671        0.64764259594502       -2.18314505001210
H           -3.51536383728946        0.51064422179036       -1.99636658228716
