42
 energy: -83.640413913796 gnorm: 0.000386232517 xtb: 6.5.1 (579679a)
C           -4.81794368548678        1.60705992346548       -2.03608846984473
O           -3.85115426229541        1.02491207767560       -1.17744118832886
C           -4.23155234928345        0.88939414514221        0.13560416653182
O           -5.34035498434464        1.26667561762598        0.48980878337318
C           -3.20304583563897        0.27917033529563        0.95441406534602
N           -2.03714279793603       -0.06032592245417        0.28591664467988
C           -1.06862839032505       -0.61845358679386        0.91385165849436
C            0.18672003673889       -1.08550219405182        0.18516476865193
C            0.34958703221311       -0.23799832624710       -1.08799642308586
C           -0.08708780361150       -2.55613947807805       -0.19605356970124
N            1.27600491650473       -0.97565343419776        1.15407314233796
C            2.76199071922096       -1.09567940360159        0.80188795428264
C            3.03866159671757       -2.41053382094991        0.00939343661701
O            3.48525211600151       -0.97451992424232        1.88132483711602
C            3.12214532545592        0.07874213810642       -0.17559362476167
N            3.93026808999770        0.02409686158874       -1.19245724135920
N            4.17471277033390        1.32806103216371       -1.58613166394103
C            3.50758748964320        2.07880465310626       -0.77602202017527
C            3.43723442289826        3.56091358023440       -0.77285556150136
O            2.82273523918470        1.36298563226714        0.13712816514198
N           -1.14965500945038       -0.91238109313528        2.25769799539722
C           -2.23130124473374       -0.63159982829021        3.04189113129861
O           -2.21804220289726       -0.92268620619591        4.23961088454792
C           -3.39651591874238        0.02810653033550        2.33843254601852
O           -4.42014714967007        0.29744605000516        2.99835216301610
H           -5.06294565065540        2.62556863961530       -1.71659793904698
H           -5.73806158392773        1.01305711719463       -2.04834332561405
H           -4.38625112362866        1.63197635734643       -3.03609600912903
H            1.19407339968268       -0.58241910031895       -1.68203179489839
H            0.49735741431043        0.80904916783969       -0.82735828556767
H           -0.55789767423000       -0.32018811488349       -1.68673420004406
H           -1.09404690859930       -2.64348308942315       -0.60572631878307
H            0.61108413861223       -2.91606740585474       -0.94778325650887
H           -0.01369986822670       -3.18622660141395        0.68966433329321
H            1.21690641857783       -0.05710661879688        1.59347554667875
H            2.63129446948281       -3.25788758477515        0.55647717214216
H            4.12077670611913       -2.52457879432291       -0.05290015921166
H            2.63664202986239       -2.38601061592723       -1.00112131793174
H            4.10667042572814        3.95656713569110       -1.53241330698661
H            3.72655079202325        3.95083373201229        0.20269500823942
H            2.42062397699025        3.89365610574567       -0.98269007202641
H           -0.34940608260618       -1.35163368850303        2.69512934523360
