42
 energy: -83.592825792637 gnorm: 0.000378965777 xtb: 6.5.1 (579679a)
C           -5.59728427673555        1.89929792584739       -2.41623220431111
O           -4.60663641633490        1.75040292146558       -1.42405615879095
C           -3.60796778664150        0.81665971513351       -1.72106182993058
O           -3.67265382462248        0.21110462152799       -2.81362804475104
C           -2.61523373243389        0.64994541419028       -0.73061141803255
C           -2.54047033157097        1.37521485965302        0.55434801797419
O           -3.37346385921499        2.26888334966384        0.90499496475773
C           -1.46041336463177        0.99704586443610        1.36203999415843
O           -1.13410500361042        1.54522718120639        2.60121961109655
C           -2.17372501562689        1.58285047938638        3.56856681053075
N           -0.56613102961586       -0.01154483055621        0.97489510930134
C           -0.67472522200945       -0.57593264442657       -0.27055928547316
C            0.34430526506923       -1.64529636512796       -0.62915884112324
C           -0.05245532983865       -2.93754012443450        0.10610186088324
C            0.34757354833364       -1.86446987056680       -2.14917536468092
N            1.65368666303133       -1.18409912834694       -0.15594971764486
C            2.81445260697283       -1.92083111791001       -0.42557163832749
O            2.79554427996360       -3.13227780000864       -0.74293512235477
C            4.02028002583770       -1.17899332624634       -0.24302014099966
N            5.27798569644583       -1.60825527573294       -0.40117036642144
N            6.08799756790482       -0.53776164977502       -0.14126119184446
C            5.32833867639747        0.46579902174832        0.15253586446612
C            5.76030238400833        1.83880642143047        0.51462322796196
O            4.00643023413965        0.16044045644167        0.11428658327748
N           -1.63637253129274       -0.29313616341970       -1.07284256814522
H           -6.29395109137654        2.66539608197389       -2.07099569076080
H           -6.14717969843473        0.96317959055100       -2.58032594458693
H           -5.16426543545573        2.21422220701257       -3.37475482564786
H           -1.72440198850163        1.92418571027497        4.50338896742777
H           -2.61152777834656        0.58833484609653        3.72516086787088
H           -2.96853044993266        2.28037414614034        3.27502389096030
H            0.23076124006630       -0.19212137648627        1.56058445806856
H           -1.07049668354978       -3.21432180881684       -0.16843595456029
H           -0.01004217790381       -2.77551777472783        1.18281919706547
H            0.61592435483550       -3.75670078549994       -0.15365258790492
H           -0.66473711021479       -2.09477925911883       -2.48243207683266
H            1.00815224420530       -2.68766362668801       -2.41681877522225
H            0.68216400312046       -0.95889803431541       -2.65503552482935
H            1.78836109299887       -0.18358450017647       -0.22390562354749
H            5.45439150378391        2.07863640102559        1.53352620819736
H            6.84294610355167        1.90728365179581        0.44211017593840
H            5.30717364723232        2.57043259537732       -0.15437691321145
