42
 energy: -82.912069647480 gnorm: 0.000519069045 xtb: 6.5.1 (579679a)
C            6.25946014753758        1.01986339373342       -1.16279356517147
O            4.97733389708398        0.54179947239985       -0.77585812267563
C            4.84252122034309        0.20926189963678        0.54287984843046
O            5.78027015729139        0.33932162478163        1.31216247810703
C            3.51342018722447       -0.29403821036365        0.85648337962228
N            2.62105839330634       -0.30534693308467       -0.19622446189917
C            1.43522589164053       -0.76599574207603       -0.04451276701054
C            0.46911806166479       -0.75916658441581       -1.21540210630849
C            0.02831541621729       -2.17481990390003       -1.59775932885466
C            1.12609939186321       -0.07032531749748       -2.41253906767050
N           -0.70172875268791        0.07417286622823       -0.84770623175848
C           -1.73803974113678       -0.31502092273999       -0.10791277431714
O           -1.92251476766717       -1.41025553182632        0.39671877225036
C           -2.70430550851782        0.81198792663891        0.08561549768138
N           -2.53470212211609        2.04943074867675       -0.19769391267249
N           -3.64149978545138        2.75259683047084        0.19104319695264
C           -4.48231934306895        1.94501884799024        0.71205454079119
C           -5.81785677689559        2.21132432900248        1.26738711587032
O           -3.94765924068068        0.64820906713521        0.70401998752783
C           -4.62620779668811       -0.59280364612735        1.08058056140339
N            0.99305550781893       -1.26489886709208        1.16229054745298
C            1.75410563982284       -1.27274131363299        2.30515234089477
O            1.27865822095444       -1.70217702298294        3.35188011461305
C            3.16382771871569       -0.73928669077495        2.16102464897461
O            3.90187363062864       -0.72682256139502        3.15935007841342
H            6.51392925426823        1.93442850724362       -0.61735401452049
H            6.21013584991269        1.22973136643134       -2.23028459690588
H            7.02875406536241        0.26514641559505       -0.96868537544147
H           -0.77872277102326       -2.12850495945243       -2.32625391139379
H           -0.31230633895734       -2.73598387465397       -0.73106492302057
H            0.87525029051697       -2.69801260281756       -2.04074022726138
H            2.01572847517775       -0.62637932986500       -2.70526102810576
H            1.42515447887286        0.94340115613031       -2.14795744017494
H            0.43288131451643       -0.03505558173863       -3.25018501439109
H           -0.70816466469731        1.01876313964244       -1.20137584954423
H           -6.57285923892387        1.63532036953056        0.73208301565188
H           -5.85828642861120        1.92808593883221        2.31983382472967
H           -6.03211627821374        3.27391233110784        1.16827296519442
H           -3.85223939122540       -1.30322987944477        1.36344205549036
H           -5.27373600043614       -0.35347297325164        1.91890374571470
H           -5.19364127140234       -0.93744921175634        0.21875066660150
H            0.05272600765905       -1.61998557031219        1.23902433673670
