16
 energy: -33.441099905848 gnorm: 0.000688445860 xtb: 6.5.1 (579679a)
C            2.78446645522603       -0.54846051826040        0.15422739387870
C            1.33974119199009       -0.29169720255043        0.06215781213002
N            0.38257406688236       -1.14467960463746       -0.18952896624487
N           -0.74621944658500       -0.42836673419947       -0.15137881995416
C           -2.01024736122954       -1.08555783930642       -0.40369627994686
C           -0.47060410394109        0.83210905350094        0.11445966132950
C           -1.40892468418032        1.98635575480630        0.26076612814303
O           -2.58738272636790        1.84074624908990        0.12532518874846
Cl          -0.64508842125771        3.45171728297092        0.62622291704089
O            0.84256208796624        0.93731332369551        0.25478962517986
H            3.00542830827425       -1.55720802116033       -0.18704652795593
H            3.32728711652823        0.18341756786634       -0.44415121681127
H            3.10734615216635       -0.43450927232804        1.19100127278185
H           -2.12855405219498       -1.19758573120792       -1.48153898055587
H           -2.81468749068926       -0.47742894900739        0.00185881707580
H           -1.97769809258771       -2.06616535927206        0.06653197516086
