43
 energy: -76.181876014394 gnorm: 0.000389691942 xtb: 6.5.1 (579679a)
C           -3.82850809515411        1.68826625599348       -1.70167653350112
N           -2.59405357493632        1.33965897005471       -0.99399385684389
C           -2.40821478442346        0.19271982311245       -0.26278729064845
C           -3.50932207719564       -0.84660512833082       -0.08133302076332
C           -2.92331101995137       -2.08862196997901        0.61034281038865
C           -4.63027582138742       -0.26507318748713        0.79168781178229
N           -4.05970872655103       -1.22371773946747       -1.38242878800613
N           -1.29075633682148       -0.04765018338935        0.34634566299005
C           -0.22980707078984        0.81187940212097        0.29205360990366
C            0.97216898824909        0.33390365025740        1.05429944976170
O            0.91991380178730       -0.66009988706714        1.76984675409897
N            2.09528595457462        1.06442515504935        0.90998982947805
C            3.33930686297986        0.65318304584251        1.55141915286081
C            4.16279342646886       -0.21852556757413        0.62618356753034
C            5.33767121632566        0.26721503936015        0.05878919388684
C            6.09230890556002       -0.52647393133086       -0.79552378700770
C            5.64249601335346       -1.80456433397038       -1.06969073679821
F            6.36503883804596       -2.57913817166338       -1.89633674844752
C            4.47895970787726       -2.31895833595049       -0.52540347790891
C            3.74081189059150       -1.51411256917532        0.32965147672927
C           -0.35611089763941        1.97435627283789       -0.41066727543492
O            0.61067212185374        2.90985947648979       -0.52456712912360
C           -1.59623630997447        2.28930097728995       -1.09247242695993
O           -1.74290008062746        3.33684721803648       -1.72188037824783
H           -4.38762889062743        0.78827356286554       -1.94165285610537
H           -3.55584536798572        2.20956095524904       -2.61964866512401
H           -4.42640151482250        2.35442365031506       -1.07914694419721
H           -2.55415561109074       -1.83375995794195        1.60333334690307
H           -3.69752102870165       -2.84846850353004        0.70131973740521
H           -2.09927734357654       -2.49162238649168        0.02342733722340
H           -5.36735525502774       -1.03946293373703        0.99931361612926
H           -4.22089913207320        0.09229758618110        1.73595346222142
H           -5.13102521358804        0.56007000418900        0.29031175329713
H           -4.84756472045423       -1.83941502561895       -1.23909664274786
H           -3.36442493116527       -1.73014707795605       -1.91436911155833
H            2.14529123838550        1.82807254896947        0.25720344012754
H            3.89445389928117        1.55365033594500        1.82408315213957
H            3.08176730010543        0.10090719611023        2.46135584659109
H            5.67311531120224        1.27248566046475        0.28523180931804
H            7.00873260752510       -0.16132277371036       -1.23996863980356
H            4.16331687764867       -3.32621283552466       -0.76464397178501
H            2.82856162544032       -1.89739145354215        0.77270562858298
H            0.26863821730976        3.63998716670626       -1.07506816833492
