42
 energy: -82.986208392931 gnorm: 0.000510135765 xtb: 6.5.1 (579679a)
C            6.68364394947066        0.98062769627620       -0.50635385777810
O            5.29459104685404        1.32891369936066       -0.39969260973558
C            4.45002849835631        0.31387450273605       -0.17485646033205
O            4.81483127640646       -0.83112476181595       -0.06573894039903
C            3.02471374995795        0.74625941694579       -0.07936768744745
N            2.15876866313684       -0.26860413342764        0.11594217664269
C            0.87475967952869       -0.01093484211999        0.20909604828499
C           -0.03888555556720       -1.19132148848980        0.46644501703111
C            0.29797511413192       -2.32226056555378       -0.51421460967704
C            0.17266459064587       -1.64128739902890        1.92173525882754
N           -1.42143609519128       -0.75070339527026        0.27492509303428
C           -2.47322693616256       -1.55059876597040        0.45756645747305
O           -2.42789696635137       -2.73156746871462        0.76242711173913
C           -3.84988746792923       -0.86489233865475        0.27271018760183
C           -4.62459598886531       -0.91474598476197        1.59037975471609
N           -4.59328860775141       -1.58938348318225       -0.75650341115182
N           -4.91154592503935       -0.81668668097418       -1.67185629439523
C           -4.43966229158022        0.47720437107353       -1.39392454119017
C           -4.65945491678549        1.54479577489855       -2.15679731863216
O           -3.74725710904470        0.45196454472010       -0.22281590194409
N            0.34000358226311        1.21818601309691        0.13628504963699
C            1.15700344711025        2.23407530268231       -0.04279733959051
O            0.65824005040992        3.46888424558371       -0.10491577436367
C            2.56208339747115        2.05301196870621       -0.16786944797358
O            3.31243866095725        3.14886482633410       -0.35132164376757
H            6.81534939242597        0.20971653348786       -1.26879662870192
H            7.04612757872813        0.61068546270861        0.45507902093965
H            7.21196945512734        1.88795459650267       -0.78768966358379
H            1.35792662395424       -2.55880974983908       -0.43210728545472
H            0.08415234715930       -2.00549856955965       -1.53410180855422
H           -0.28575368488597       -3.21178204158310       -0.28459103107331
H           -0.42413965852717       -2.52594435141519        2.13625943993656
H            1.22563801521078       -1.87368411781442        2.07390378579070
H           -0.11631129493277       -0.84071041176547        2.60081352339044
H           -1.56038852461531        0.23309860512935        0.08380171007422
H           -5.62857570518972       -0.52606095347135        1.43531215938839
H           -4.67609866666096       -1.94582020668683        1.93445340226438
H           -4.11320392093264       -0.30550153661362        2.33164975208787
H           -5.22006865542224        1.44963574283092       -3.07158018722860
H           -0.29942930586943        3.45904270436826        0.02025347666131
H           -4.29242477305757        2.51999791128714       -1.88496365997285
H            4.26062193105955        2.94112732799940       -0.41672932256797
