46
 energy: -87.050975825297 gnorm: 0.000959596135 xtb: 6.5.1 (579679a)
C           -6.02166727412257        0.62808176847000        1.08869435128658
O           -4.92802989839705        1.21112739757307        0.38437442414580
C           -3.70518501670213        0.71542021639231        0.65720019297090
O           -3.53684317032690       -0.16958499605348        1.47443786696791
C           -2.61899193319498        1.27762817616925       -0.27382404780491
C           -2.86129085289594        2.75666911579841       -0.59893299000272
N           -1.33052209399265        1.14272769593718        0.38650165939317
C           -0.65397684568870        0.05445375267881        0.27104102194133
C            0.61464004671470        0.00271146083961        1.13415664571226
C            0.85691096847813        1.37940761361070        1.77213680423893
C            0.47959977928155       -1.04812096164729        2.24460719432218
N            1.75405879096449       -0.28718714942717        0.24961727712706
C            3.01129013409777       -0.48995501821737        0.68617355107380
O            3.35609636295013       -0.63805712410819        1.84758356120333
C            3.96347618156360       -0.53101012495146       -0.45792525970367
N            3.65960514310735       -0.36554033553380       -1.71056920517677
N            4.82522879449428       -0.45453738961890       -2.41357134050011
C            5.76478239499796       -0.66601082425615       -1.54447533275806
C            7.21259813328879       -0.82867854531130       -1.80203956082037
O            5.28606585009705       -0.72458744629461       -0.29210360478845
N           -0.97883847079641       -0.97472687340780       -0.55595545844519
C           -0.34717463924987       -2.28532955039340       -0.54536244185912
C           -1.97069711846584       -0.75335256263627       -1.61812428953596
O           -2.01939719151299       -1.57985746264782       -2.57480344544681
C           -2.69973571107858        0.38470387198589       -1.47687191234537
O           -3.67388076212731        0.72396948909582       -2.44684376373113
H           -5.88009352594473        0.73397038386594        2.16790706013499
H           -6.11381908078885       -0.43382375360786        0.84396271771088
H           -6.91899842614465        1.16077329067823        0.77920102782352
H           -2.04893598961831        3.12335110166644       -1.22552254854310
H           -2.88806148913560        3.34165989323932        0.31967300923443
H           -3.80321817805361        2.88063928994229       -1.13075504858181
H            1.77781169470395        1.36039080058903        2.35256271331859
H            0.93627231224161        2.14333002717844        1.00031175221005
H            0.02557763270987        1.63128959569813        2.42848560937664
H            1.20792031609925       -0.86272653924005        3.03209767209468
H            0.64044527341203       -2.05429491302072        1.86615444036097
H           -0.52131196282518       -0.98479178882690        2.67169845020912
H            1.64588316604762       -0.05298566278630       -0.72831678259065
H            7.55637602426998       -1.78687240224403       -1.41448635818978
H            7.40151586559506       -0.77848152089054       -2.87120833107950
H            7.77126627668051       -0.04129379097945       -1.29668576935349
H           -0.60263246027587       -2.78945069315110       -1.48082660908382
H           -0.72270775508542       -2.88595747059180        0.28764724933599
H            0.73757620145568       -2.21467516685965       -0.47676241773041
H           -3.63898849682774        0.02958412529832       -3.12149273412720
