46
 energy: -87.024217682865 gnorm: 0.000952132898 xtb: 6.5.1 (579679a)
C            5.87017298614134        0.32572041122858        0.22798286200894
O            4.72871248423257        0.57881254392094        1.04121881891425
C            3.60158277494129       -0.18095724639409        0.75350731289091
O            3.56530848227167       -1.42679355913654        1.38668493817917
C            3.04488204191480       -1.42093641952366        2.71105431640883
C            2.57661361920348        0.24486811576515       -0.04826404180564
N            1.45450639573776       -0.59157937351702       -0.12852397938183
C            0.41001878399982       -0.26031838159762       -0.80641752264328
C           -0.71639223982608       -1.29904878287484       -0.81629440601645
C           -0.35520547830902       -2.45285901790768        0.13178728961150
C           -0.91920441669178       -1.85549184320660       -2.23290806984235
N           -1.93954403204948       -0.65871155383080       -0.30607230466533
C           -3.14149397920270       -1.27188233853043       -0.25809595393273
O           -3.40815461957038       -2.36080561464409       -0.75215612301851
C           -4.16471732356988       -0.47260274422774        0.45384752476214
N           -5.41051750381356       -0.78720856520052        0.66302066146663
N           -5.96241913244351        0.24039409348579        1.37108863471674
C           -5.02514806976355        1.11661164416954        1.55223394115598
C           -5.12275373889402        2.40979342204548        2.26491335766179
O           -3.86171210423313        0.73082650309870        0.99869313555451
N            0.29877529997137        0.91542783019852       -1.49001617669327
C           -0.84425169190786        1.34057874231753       -2.28721362768412
C            1.43055252242522        1.80315382237575       -1.57653315036784
O            1.33921116568056        2.82826673599679       -2.30341352280292
C            2.53235006476736        1.43936325180869       -0.82682945496878
O            3.65897316610907        2.27080661949295       -0.90490737442361
H            6.68106695656461        0.95070724912711        0.60656130688533
H            5.67103472533887        0.58787427705673       -0.81916600848929
H            6.17178198537662       -0.72776259431765        0.28250869582015
H            3.60931518407036       -0.73817588877943        3.35852274417388
H            1.98786887296250       -1.12334658330277        2.71472686340730
H            3.13237345368254       -2.43737976075682        3.09869910926339
H            0.55897647887577       -2.93636262594940       -0.20926651801553
H           -0.19429526159379       -2.07271990507373        1.13945716020763
H           -1.16178005580269       -3.18409016085014        0.14934832569920
H           -1.40050953209767       -1.12936245164281       -2.88289153809652
H            0.05264772228205       -2.11423012805322       -2.65276065860080
H           -1.53580543578747       -2.75223075858306       -2.20558083306941
H           -1.81855594034751        0.16714251819082        0.25914603092180
H           -4.86778750395406        3.22802188461648        1.59174060681448
H           -6.13561033185036        2.54586594734584        2.63567133381125
H           -4.42299625819061        2.43004072489971        3.10037076707429
H           -0.94106106159872        2.42422338616852       -2.19385170662456
H           -0.68294647389344        1.09946977901910       -3.34139111917320
H           -1.76224504743654        0.87616291972055       -1.94088432413236
H            3.41838106630015        2.99106787586385       -1.50935032298724
