13
 energy: -19.065296067722 gnorm: 0.000413193510 xtb: 6.5.1 (579679a)
C            1.99989842716834       -0.23416628804939        0.36826198949789
O            0.59412589505495       -0.58927293758963        0.21026515381097
B           -0.50167787958767        0.35269830004603       -0.07272145766517
C           -1.92012645348097       -0.25906273573441       -0.19294082827867
O           -0.05697920823958        1.59678640312817       -0.20001887220570
H            2.09567345656156        0.80247237347525        0.05406290656296
H            2.27193319419459       -0.34951715777318        1.41667884680426
H            2.58963386846417       -0.89036704222362       -0.26896873027091
H            0.40680560608267       -1.52506032832716        0.36111549664657
H           -2.13774312963793       -0.48057995111280       -1.23883280609874
H           -2.01551957364363       -1.18788152366180        0.36424822479398
H           -2.68157256241368        0.43692194561333        0.15371939099438
H           -0.64445064052280        2.32702994220923       -0.39390731459184
