43
 energy: -83.118594067398 gnorm: 0.000495984944 xtb: 6.5.1 (579679a)
C           -6.20536491934007       -2.26302718177954       -0.45222007233181
O           -4.98306620152985       -1.51275424642541       -0.41489661263899
C           -5.01010981951593       -0.36654206871788        0.23822251273322
O           -5.99944962135712        0.06769724154337        0.80027147832349
C           -3.71809486033024        0.36704266722328        0.22564931137486
N           -2.66402615669741       -0.22017483947033       -0.41491667508164
C           -1.52815007211625        0.39476580279401       -0.44814169933234
C           -0.37184245111661       -0.21733546803706       -1.20351730336411
C           -0.59387558002873       -1.71971413691950       -1.40103214179184
C           -0.24242111948534        0.51546763186660       -2.54845778634145
N            0.84652881014568       -0.01352835051188       -0.40259379188726
C            2.06999501178027       -0.34225508709847       -0.85190533038314
O            2.36625835292429       -0.77786092153703       -1.93899862105941
C            3.11250412422296       -0.09042000872932        0.21104954742765
N            2.85208933069181        0.39334156367907        1.46786906199563
N            3.94985437046496        0.46234394332296        2.08875165381519
C            5.01543960111646        0.01654624446372        1.25126378279295
C            6.01471338792996        1.15148937450629        0.98968321963840
C            5.68733417206334       -1.23205732407371        1.83772242863889
O            4.35189179739403       -0.32533729787481        0.03657805972122
N           -1.34640937904928        1.62016657540833        0.11564719357879
C           -2.32932313733977        2.32015752179361        0.80415302958408
O           -2.09606076139883        3.40590376036135        1.29288365102865
C           -3.60895663429860        1.59665234495788        0.84212506914316
O           -4.60257428332916        2.19663047068417        1.47767842011758
H           -6.98723411073163       -1.67235394979658       -0.93448426179971
H           -6.51481955478761       -2.51793085453831        0.56357592610862
H           -5.99672624277514       -3.16319282986623       -1.02624604562355
H           -1.53305409380664       -1.87369521260262       -1.92999812892957
H            0.22287501444846       -2.14320308772606       -1.98174533966459
H           -0.64482426845486       -2.21597833518164       -0.43367005280804
H            0.51253942683446        0.03861738832622       -3.16995141451948
H           -1.20154982243351        0.48025944917345       -3.06374366138747
H            0.03559903520827        1.55394768482658       -2.37816538107248
H            0.74777121570385        0.25885048709739        0.56289554253175
H            6.76383448476054        0.80102603599389        0.28341664934280
H            6.48666207498171        1.42764426127409        1.92940065402429
H            5.48531060853490        2.00591787037331        0.57387272790178
H            6.15489160548449       -0.96844034071851        2.78313871370499
H            6.43769897868561       -1.58699806422143        1.13505922447451
H            4.93548307474937       -2.00208726813934        1.99591305281689
H           -0.45113410019752        2.07731835079465        0.04350814511863
H           -5.42020428800526        1.63973520350203        1.44435426407839
