46
 energy: -86.310594631311 gnorm: 0.000681073125 xtb: 6.5.1 (579679a)
C            4.99369732873138        1.21504057497029        3.27938498567358
C            4.93712339891927        0.72696573909600        1.88489441404705
N            5.92149405920113        0.56562649276463        1.05644586192181
N            5.38543018864093        0.10509188326468       -0.10686087641255
C            4.10643788974429        0.01171210628920        0.08051967700910
C            3.07385723025379       -0.43268302522053       -0.88485546966325
O            3.34460261347519       -0.77466391939062       -2.02009082156929
N            1.83286707143750       -0.43762743687697       -0.33067785667855
C            0.61211767201867       -0.65276047762705       -1.10783032490630
C            0.66901846675420       -1.94658747132350       -1.93634963306218
C            0.42232112648495        0.54957233550410       -2.04255103520100
C           -0.56688973372017       -0.75577130706769       -0.15074524673437
N           -1.63658256678551       -0.11976924798845       -0.51347790643526
C           -2.79611942448828       -0.20033529685952        0.21212705634063
C           -3.95893906493820        0.50424226557730       -0.26292090342261
O           -5.09379208118413        0.46432985594951        0.06180846681859
O           -3.63324081993159        1.41359545431929       -1.43137900663264
C           -4.82634247713032        1.80396014446045       -2.17113258242775
C           -2.75383781577983        2.53314203868236       -1.11895114509059
C           -2.84265359681778       -0.97046763350672        1.35221188480545
O           -3.91147484497010       -1.11034006533033        2.10862054622166
C           -1.63439456167927       -1.67129023037806        1.79522878157841
O           -1.63442441701533       -2.33156596872086        2.82052520316223
N           -0.53012268564091       -1.53772141428235        0.97676182525087
C            0.66143644626219       -2.24214718293307        1.46810223714553
O            3.75957060954756        0.39264723085367        1.33049774744050
H            6.02245617025913        1.44394350104665        3.54819576031669
H            4.37899077107037        2.10898968050773        3.38241391181414
H            4.59767625321262        0.45654197986110        3.95421732074106
H            1.72179253091707        0.05946149306633        0.53749703136822
H            1.39472046710868       -1.84251175564311       -2.74040046752934
H           -0.31388247094219       -2.12497904720141       -2.36925695063397
H            0.94327631933685       -2.80096705649617       -1.32209433406565
H            0.33946924423828        1.46402502982010       -1.45897132170632
H           -0.48185511356929        0.42433727192733       -2.63429192098936
H            1.28029936668343        0.62664803130629       -2.70906300159016
H           -4.48089166486961        2.32772440367138       -3.05831634808746
H           -5.45075697222982        2.44416628706580       -1.54829436449069
H           -5.34531877967537        0.88573375052861       -2.43603216859835
H           -2.47337508248808        2.98015719848655       -2.06959673137807
H           -1.88224243102746        2.11908953711229       -0.62026378447552
H           -3.27973207801721        3.24595109378428       -0.48415139658092
H           -3.70074411270184       -1.67682216090997        2.87925109325804
H            1.18632001782490       -1.59633915127207        2.17090411449468
H            0.32683712557499       -3.14214010329960        1.98294119188031
H            1.31579842790920       -2.50520542758798        0.64600448707113
