20
 energy: -38.355201275182 gnorm: 0.000591905884 xtb: 6.5.1 (579679a)
C            4.09902314610634        0.19563772072129       -0.43682002242358
O            2.82674492654501       -0.33646735983109       -0.11412834406974
C            1.75350831217529        0.51150999864570       -0.38627639759806
O            1.95480994535805        1.63373668784531       -0.87054804279999
C            0.52582701223943       -0.07960353334221       -0.04434272055043
N            0.33584378368645       -1.29006267956097        0.47881169420623
N           -0.91954366187948       -1.52164177965586        0.67822349236844
C           -1.67199698541509       -0.33141887705297        0.24278632784667
C           -2.63627430075884       -0.71512101699257       -0.89087891883233
C           -2.43662466403474        0.26159464750840        1.43720558601934
O           -0.69980357139985        0.58932119915079       -0.22635628036691
H            4.28726048475463        1.12771032790153        0.10866146410141
H            4.18125158933654        0.39766919965753       -1.51116325526788
H            4.84202944381370       -0.54934151876940       -0.14996315146619
H           -2.07046943229969       -1.14460955108875       -1.71620063591051
H           -3.16937684445942        0.16535038548585       -1.24524210619396
H           -3.35326048474117       -1.44993389347563       -0.53061589830500
H           -1.73105463665029        0.51492707315324        2.22695202728073
H           -3.14918532623336       -0.46782842890257        1.81639024774696
H           -2.96870873614371        1.16131339860266        1.13350493421484
