43
 energy: -83.162057770369 gnorm: 0.000659227900 xtb: 6.5.1 (579679a)
C           -3.63136892067636       -1.93684553433853       -0.63746951066629
O           -4.35760509642019       -0.89155428621602        0.02619722159649
C           -3.92071796811567        0.25957686318308        0.39798817152669
O           -4.79225406790091        1.02849826676278        0.97099771115862
C           -6.14959311910956        0.56203686903342        1.14136486414467
C           -2.58177019837195        0.77477226383968        0.23777234816531
N           -1.67543502791862       -0.06956295689908       -0.36993562182863
C           -0.46048390260608        0.32623857205284       -0.56811446771806
C            0.52760932240534       -0.58392692337422       -1.27926571209320
C            0.80014364380681       -0.02671290935057       -2.68490590936917
C           -0.03356381224496       -2.00149379808720       -1.38210349228366
N            1.77291681043560       -0.68166328315944       -0.50992646510771
C            2.73329934073176        0.26206880744104       -0.42619394290676
O            2.63412565503489        1.41085996565112       -0.83512935832208
C            3.93681657612040       -0.25120166894277        0.26081618945460
N            4.09751283021353       -1.44316023207593        0.75339716356569
N            5.35004264397231       -1.48281861741878        1.28166482949953
C            5.87688395835743       -0.31131039276896        1.07680235944704
C            7.22748762646720        0.15279600491181        1.46193486320114
O            5.03146033271324        0.50927822879987        0.43860791215710
N           -0.03356620661884        1.56346637503900       -0.21206765327396
C           -0.80810295884020        2.49943042971338        0.42690597021916
O           -0.38119433503168        3.58525902164814        0.75211488434835
C           -2.19917399131013        2.03971133081371        0.66028813287574
O           -2.95371526403868        2.93092776072254        1.26678660124112
H           -2.80162274015589       -2.26503120987231       -0.01331545536179
H           -3.25801768955218       -1.57660657070762       -1.59506626416645
H           -4.35202484047469       -2.74095479257762       -0.78002875764519
H           -6.14637648486803       -0.32348858111311        1.77676460937568
H           -6.57150185497208        0.32197924415432        0.16562275771678
H           -6.68843320067205        1.38023663773549        1.61112089946737
H            1.17503857165039        0.99344816420036       -2.63885345232621
H           -0.12678246543427       -0.03653905565307       -3.25532878854746
H            1.53415257554588       -0.65566219464800       -3.18559882579582
H            0.70282041668679       -2.65567139015802       -1.84582069921113
H           -0.28298918378576       -2.38468179333581       -0.39420111952598
H           -0.93236250399417       -1.99633943005468       -1.99450093538511
H            1.97927820332708       -1.58751563939156       -0.11431885507792
H            7.14810022626289        0.98138945510797        2.16599400116251
H            7.77897872442531       -0.66421751931698        1.92078579569852
H            7.76245392178903        0.50996207666587        0.58194163394851
H            0.93876834284292        1.82079297589412       -0.42613816295514
H           -3.86923588967484        2.65423046608897        1.43283052959307
