42
 energy: -83.002796631271 gnorm: 0.000769016918 xtb: 6.5.1 (579679a)
C           -4.76595467690078        2.31800243360511        1.92095998732729
O           -4.34019412259092        1.35913364208424        0.95373436803582
C           -3.01853437895528        1.19880639960138        0.82660646481226
O           -2.23436587662413        1.84219294371760        1.50699098690172
C           -2.64802960235211        0.16749471619907       -0.15086263102663
C           -3.57378907350992       -0.84329305346194       -0.53148122404951
O           -4.77025475676059       -0.87979208422553       -0.23928201844653
C           -3.00049389957903       -1.97858333016601       -1.34143947282732
O           -3.63783073835885       -2.89897087390030       -1.81077309770183
N           -1.62386481674984       -1.95128650502807       -1.50237672919370
C           -0.79012910672981       -0.94153826523294       -1.16644224922042
C            0.67183984499462       -1.12695777473496       -1.55890866556688
C            0.95823877381672       -0.45303069066697       -2.90613802236136
C            1.04427799693944       -2.61611855084633       -1.66029611040708
N            1.52582352759872       -0.53781401320994       -0.53030888159250
C            1.39747941134402       -0.91752035462197        0.76571577399003
O            0.50110318046905       -1.63233739841915        1.17972241000433
C            2.43107488368927       -0.32805524731221        1.64352900156495
N            2.56981421862427       -0.48149423962098        2.92350424924103
N            3.64803089479217        0.26250555102030        3.29324573242614
C            4.10174323294122        0.82662911520660        2.21700431793151
C            5.26009171420540        1.73557845192476        2.08670156931798
O            3.37499015221073        0.49429805585519        1.13690956531947
N           -1.30283428514484        0.11153233646446       -0.56640347569380
C           -0.50402110169612        1.33080029504628       -0.39852509158465
H           -5.85321927821169        2.34859741332298        1.87379318075455
H           -4.43881751023643        2.02216741503142        2.92145321709425
H           -4.35114537292706        3.30124181716417        1.68527441016340
H           -1.25107505203260       -2.73471150847669       -2.01494211405235
H            0.78828586319902        0.62007248832874       -2.86884597301158
H            0.31223654158152       -0.88373981597810       -3.66915647864081
H            1.99545286102247       -0.63149329638757       -3.18213971840377
H            2.12757848851764       -2.68894069604156       -1.73108421602593
H            0.61788660784404       -3.06641344153213       -2.55427146818028
H            0.71222342579062       -3.16027562569525       -0.77742805276836
H            2.35775500765281       -0.05870399353978       -0.82821788509095
H            5.95978803221847        1.33971802856741        1.35129255769544
H            4.92686078928554        2.71374742708875        1.73909592809334
H            5.75628107767043        1.84006360403926        3.04903995146193
H           -1.14504872440210        2.19284597639208       -0.56433626219106
H            0.29610212450853        1.34870035360161       -1.12641004371207
H           -0.08535827715440        1.37015829483715        0.60549620961234
