43
 energy: -83.865619438408 gnorm: 0.000341330829 xtb: 6.5.1 (579679a)
C            6.41238608031031        0.74774799433198        2.08645440679104
O            5.28351072413585        1.05311941749247        1.27393506385109
C            4.31167525916349        0.11494312597457        1.23486604620725
O            4.39989478559985       -0.92812481771762        1.86529679728417
C            3.17482350548070        0.47021669183593        0.37966824425815
N            2.18662741071781       -0.49294364102361        0.33383352466812
C            1.13712016842717       -0.31150988593245       -0.38678604721465
C            0.06402200809841       -1.37823217886463       -0.46744551835498
C            0.10336335054117       -2.00948529966555       -1.86796736634815
C            0.29489564383890       -2.44108285905345        0.61286647848252
N           -1.21983888159987       -0.71416506396615       -0.25455642034819
C           -2.40902451813408       -1.33881799141624       -0.24557163552100
O           -2.60914980922817       -2.49158999605174       -0.60107267116910
C           -3.54237282339240       -0.39909081384639        0.29133215505177
C           -4.40263972764804       -1.19981719787592        1.27934510976362
N           -2.95176480396307        0.78065739726082        0.89810187184445
N           -3.39487379133070        1.84462449746503        0.16913530040269
C           -4.16364358740079        1.43010041839206       -0.77394753927644
C           -4.86294656087160        2.25478770991631       -1.79378625145991
O           -4.33178153869466        0.06073814821349       -0.80192464141786
N            0.93757546303627        0.82362340942304       -1.12925155010017
C            1.85996103577688        1.85608521375133       -1.16758540333263
O            1.67600252370133        2.86676995111196       -1.85128225835441
C            3.02622180616578        1.63870403772397       -0.35504206358387
O            3.94538199830409        2.63373815932130       -0.37146608154257
H            7.09347894494257        1.59378424435085        2.01139280586091
H            6.10875012100744        0.60374397156091        3.12755556843669
H            6.90615183447961       -0.16152984355584        1.73130036276320
H           -0.09808386940059       -1.25443315461866       -2.62590585717109
H           -0.64328982653092       -2.79762268907757       -1.94572352580104
H            1.08923326104500       -2.43554965625288       -2.04720384679232
H            1.27639695475777       -2.89224026979644        0.47541618907464
H           -0.46794190652795       -3.21422242376318        0.54160329302441
H            0.25342760871804       -1.98470927673961        1.60118196318438
H           -1.24129169042097        0.19281391327883        0.22617565430558
H           -5.25345801243898       -0.59623910332435        1.58773723595165
H           -3.80497848842957       -1.45233649625584        2.15275783084683
H           -4.75792288610873       -2.11320992626266        0.80465565836636
H           -4.60203598972492        3.30176855581346       -1.65281439192837
H           -4.57752970973449        1.94593139236839       -2.80070853623391
H           -5.94474096242385        2.14084746874131       -1.70370564855131
H            0.11591514484203        0.91748057875200       -1.70701895019281
H            3.62249275091469        3.33472828797864       -0.96475935571785
