42
 energy: -82.887657698884 gnorm: 0.000498832690 xtb: 6.5.1 (579679a)
C            6.81956564635374        1.16983213185824       -0.25591606776909
O            5.48232951370854        1.17232014062820        0.25250860681807
C            4.59207578002037        0.45584233335330       -0.42027239817578
O            4.85547232939674       -0.17622326844905       -1.41846303640099
C            3.21595817824640        0.49526344043696        0.16979097972001
N            2.29490174313630       -0.10321199578426       -0.58092657998461
C            1.03874273409396       -0.18079962871261       -0.19190175193628
C            0.06266195777451       -0.99841977875329       -1.00243228228750
C           -0.09629525464789       -2.36522188731992       -0.31723414277146
C            0.59725597258363       -1.17834251426089       -2.43374012372140
N           -1.15750200948727       -0.23283905367584       -1.04217766071361
C           -2.52946129546981       -0.72760341792903       -0.89216012772439
C           -3.35625976642760        0.09126152708974       -1.96892316851978
O           -2.72574425526784       -1.98752096444640       -0.97500914683598
C           -2.98374398503064       -0.11167168765227        0.45818777034732
N           -2.21420159517471        0.27675815942659        1.42188520727527
N           -3.04105232305424        0.67841131498868        2.43818177339237
C           -4.25288434804423        0.50957173700755        2.01785772633382
C           -5.51475633398012        0.79170320410242        2.73551491329941
O           -4.27955965686048        0.01115328154906        0.76450490739933
N            0.59373695232294        0.46016720730472        0.90327802622536
C            1.41001682037359        1.15008420356832        1.78597704742674
O            0.94689568617649        1.67724982973964        2.77268889809587
C            2.88891022984856        1.14341886270610        1.43045893257343
O            3.69290551034753        1.67757166485527        2.17783427512705
H            7.21432789835100        0.15140246529935       -0.26436968215385
H            6.83390253340491        1.57025283228910       -1.27198275249630
H            7.40669355032505        1.79980358986969        0.40891032741687
H           -0.64928529813501       -3.04857557475600       -0.95675234765984
H           -0.61882369076817       -2.25583945170524        0.63102730782561
H            0.89545163838035       -2.77674037790335       -0.13560472604403
H           -0.12048217619041       -1.75532453200653       -3.01218781737275
H            0.74070404649945       -0.20736027570622       -2.90261578663159
H            1.55056922318081       -1.70278201804743       -2.39744035295651
H           -1.05651697198096        0.75827867824937       -1.18154025910113
H           -3.01074463168327       -0.22338651121039       -2.94879209444259
H           -4.40064484765512       -0.17360316079809       -1.83123914431919
H           -3.21145835999592        1.15769041647501       -1.83209003459708
H           -6.07023927568047        1.57209680529066        2.21588033132383
H           -6.13591179184546       -0.10280371347320        2.76166572363282
H           -5.29434642973380        1.11692730802972        3.74947899667202
H           -0.41316464741537        0.42120867847638        1.13813873370875
