47
 energy: -79.533913252177 gnorm: 0.000514228838 xtb: 6.5.1 (579679a)
C            0.24888767649861        0.43337234979104        2.57116737793900
O            1.25758166743090       -0.13419312358914        1.72583236980480
C            1.02174800679315       -0.82769146495673        0.64566180554221
N            2.06108002555317       -1.40910670660746        0.10187209842088
C            3.42461623066052       -1.31504234735760        0.62765198094017
C            4.20809773722474       -0.25193096360803       -0.11289364479100
C            5.36986101033177       -0.59513338502100       -0.79929025927716
C            6.10223739420304        0.37372171631372       -1.47130707077119
C            5.64586389182599        1.67927028429964       -1.44357183899279
F            6.34420293403295        2.61900572959419       -2.09215750281840
C            4.49425393229791        2.05219775603765       -0.77241106131766
C            3.77597960810744        1.07310778660011       -0.10280989475580
C           -0.29595762431911       -0.98639830621424        0.03065072040066
N           -1.24183587572515       -0.03621625481315        0.30272111649298
C           -2.42981886138495       -0.08484274720704       -0.22655999092139
C           -3.37593104675701        1.05493407948964        0.13125424122148
C           -2.59629070884169        2.18182952653310        0.82594704205146
C           -4.46789152188399        0.54105865173279        1.08029873322507
N           -3.99045192001995        1.57784385076303       -1.08608113305966
N           -2.81406641435452       -1.11724729679101       -1.04085391478030
C           -4.15959633239751       -1.27709717499948       -1.60769862381012
C           -1.94414181641872       -2.13785914055736       -1.36740996185676
O           -2.25752689239694       -3.08439124666313       -2.07693279782551
C           -0.60366343491581       -2.01924437586387       -0.81523703706416
O            0.25260269744906       -2.98791961037375       -1.15418416469400
H           -0.07704516718454        1.38730243059793        2.15657890463247
H           -0.60140231560428       -0.24117570322194        2.66682629472299
H            0.72761232782731        0.58687632579090        3.53800436073300
H            1.93950393206441       -1.93583231147477       -0.75296843376636
H            3.36409295365358       -1.08389887718749        1.69340463950578
H            3.88621927033870       -2.29576482768377        0.49726262766145
H            5.70767585517171       -1.62442886901045       -0.80963906512763
H            7.00700003222968        0.12031022026852       -2.00853641165210
H            4.16775430576796        3.08398551396760       -0.77423287870346
H            2.87304567442847        1.34280591289478        0.42956619852195
H           -1.74602585478042        2.48509687427395        0.21782311738363
H           -2.23822381258138        1.85398519622476        1.79980129688978
H           -3.25456040171632        3.03768729190154        0.96580203905198
H           -4.01044443394929        0.07136624764233        1.95008166737910
H           -5.07811719590654        1.37931360305509        1.41313645209525
H           -5.11207844110640       -0.18223291705492        0.58550542713158
H           -4.66312231544743        2.28859887146835       -0.83063818514293
H           -3.27819214518345        2.01483231469444       -1.65510121193562
H           -4.05846187147896       -1.75184373212104       -2.58337954005162
H           -4.63243494637560       -0.30492300580425       -1.71410047746821
H           -4.74642133281490       -1.92160409538523       -0.95326025185573
H           -0.20621348034313       -3.63248305037407       -1.73219815931098
