42
 energy: -82.975208608398 gnorm: 0.000491720704 xtb: 6.5.1 (579679a)
C           -4.18490100906863       -1.08810731357856        2.69903100545206
O           -3.74495732529180       -1.04776131038567        1.33443016311191
C           -2.59493021102683       -0.51934295047669        1.04380121353954
O           -1.92275966668519       -0.06405767677558        2.05952959513005
C           -0.66353200581783        0.61716408891065        1.99778347041354
C           -2.19988763650959       -0.47860908403789       -0.32916936845864
N           -0.93505546465938       -0.02672046844855       -0.62200065721711
C           -0.57916995153421        0.03409211283230       -1.88940341536727
C            0.82012257997199        0.56409817109510       -2.16755202857611
C            0.73393727617454        2.09435586456303       -2.28010593601297
C            1.39908307933065       -0.05712839398826       -3.44154289106186
N            1.64492651096756        0.20424678687761       -1.01186189694756
C            2.93458959928773        0.53510816066449       -0.85829651067132
O            3.62859429958127        1.12040624637172       -1.67653654630567
C            3.48194405821691        0.08368784796744        0.45189262639480
N            4.71167066152201        0.13913858562139        0.85615861456158
N            4.74187815769708       -0.40521492579636        2.10726356234231
C            3.52861763962238       -0.75765105375910        2.39000743580646
C            3.03729536270345       -1.40257083361802        3.62705674922137
O            2.67868052404348       -0.47699243713576        1.38557750288434
N           -1.31596665429773       -0.27049049378911       -2.95439262935750
C           -2.56856101752232       -0.73245751005674       -2.76748154016545
O           -3.35979981067100       -1.06118707924614       -3.66140513587677
C           -3.03254962723205       -0.85674784315346       -1.37011644350875
O           -4.26975620103228       -1.31290220432240       -1.23254651575412
H           -3.47179537256702       -1.65307557752373        3.30054094440976
H           -5.15490194796370       -1.58018900894069        2.68793914089092
H           -4.27075675812888       -0.07307122186448        3.08940452838659
H            0.12514764335997       -0.08055711108997        1.71446810404528
H           -0.48969333972381        0.99567126701227        3.00437743124505
H           -0.70648918882450        1.43532654248830        1.27878064972862
H            1.71536191011170        2.51669356009619       -2.49111076167572
H            0.36009606013906        2.50663348217945       -1.34407895728002
H            0.04880474501530        2.35936474553274       -3.08427587757957
H            2.37302169039372        0.37436586553052       -3.66658655227492
H            0.72129412176925        0.13398665780127       -4.27269097142256
H            1.50500245538688       -1.13373350525752       -3.31331580491003
H            1.15544843705397       -0.23330615701871       -0.24591473690973
H            2.23937573655456       -0.80614429768640        4.06751906751060
H            3.85464210745908       -1.50279081855684        4.33735748349116
H            2.63184613174070       -2.38779501793617        3.39638630427042
H           -4.60592059955882       -1.46825869111348       -2.14891741551565
