42
 energy: -82.949814471477 gnorm: 0.000604682793 xtb: 6.5.1 (579679a)
C            4.60831711188312        2.21744615338374        2.11829889582179
O            4.09718465179578        1.73540766125151        0.87729895947328
C            3.07402456282393        0.87654215961386        0.95130606890217
O            2.59414629346095        0.52726236524078        2.01458249295852
C            2.58864719474365        0.39241308692887       -0.35912190462330
N            1.58428606991141       -0.50875846551759       -0.25175120471628
C            1.03621441054571       -1.03317511194995       -1.30775954007831
C           -0.05300060201877       -2.05720603473836       -1.08525881730591
C            0.52199563715785       -3.20996408223326       -0.25629417981680
C           -0.70784116845228       -2.56632787522270       -2.36758837351345
N           -1.10064321770065       -1.41651704961868       -0.25999644945432
C           -1.54255449681618       -0.20400370057019       -0.57829995390185
O           -1.04305676219496        0.54633654873906       -1.37828850408467
C           -2.82901210719460        0.19667007255627        0.26062158896212
C           -4.02211773111472       -0.61023028150196       -0.24264737939919
N           -2.49579230302316       -0.01041723986338        1.62557702684223
N           -2.47803033815632        1.14029874102769        2.22590892693026
C           -2.82492258185932        2.07784811600524        1.34337756754460
C           -2.95236177309370        3.51689653015699        1.61352865175152
O           -3.06411862591198        1.58108902982744        0.15208653342047
N            1.47363410980524       -0.74202553019003       -2.56398157972796
C            2.48348921807031        0.16017646206851       -2.83620058654607
O            2.81784705060577        0.37134883732862       -3.98853816591223
C            3.11134826110712        0.82064238182831       -1.62595208119345
O            4.00444436609519        1.65288340679985       -1.79263990796680
H            5.01542465606671        1.39079025121451        2.70647394175526
H            3.81668844807848        2.70721810211681        2.69119549541846
H            5.39513288212104        2.93079322433449        1.87966060708000
H            1.28781555851760       -3.72510767663191       -0.83315941767257
H            0.96567833449307       -2.81924457577879        0.65938254962010
H           -0.26585787593041       -3.91691614266133       -0.00562801616352
H            0.01369925545545       -3.11363293000449       -2.97091678732154
H           -1.52370720487069       -3.23832192666720       -2.10891314248054
H           -1.11232616441315       -1.73573663425741       -2.94377314269214
H           -1.61212821793016       -2.00487704317387        0.37501826053384
H           -4.89980876281196       -0.34189786637236        0.34105656696976
H           -4.19785525252763       -0.37948255542046       -1.29086138900135
H           -3.81848007324516       -1.67106892315148       -0.12959977284328
H           -4.00080685777571        3.80601164524034        1.52426778137357
H           -2.39381809925835        4.08795668477034        0.87157217842678
H           -2.59788412827873        3.74635423770158        2.61483415722020
H            1.04610327189681       -1.17747405261475       -3.36453895458825
