42
 energy: -83.593517703530 gnorm: 0.000476563025 xtb: 6.5.1 (579679a)
C           -1.58121935437049       -3.48857583246798        2.12740494998519
O           -1.45066990073205       -2.29897531173173        1.38341200449701
C           -2.68111573404097       -1.73630041482661        0.95116582040819
O           -3.72922789950690       -2.33017013833496        1.27008510936882
C           -2.51090606069040       -0.55422673812960        0.20877300291795
C           -3.64243317602992        0.21772098231458       -0.35417256586572
O           -4.85734867427694       -0.12882483875479       -0.21982374653272
C           -3.25883304227498        1.35598848288454       -1.06871165984765
O           -4.12560651867968        2.23624459809206       -1.71663398324469
C           -5.08057677821863        2.88791394030701       -0.88838025470139
N           -1.90953359960531        1.76664167416407       -1.14062230338802
C           -0.92736991693222        0.95375156911952       -0.63554426212495
C            0.51363995728935        1.40344264421623       -0.84017391495049
C            0.84253070631919        1.41491719506866       -2.34537020436481
C            0.71507955798158        2.80440102961465       -0.23832638316459
N            1.35391757336592        0.44552172425921       -0.14007974726326
C            2.72989019333426        0.44145793032532       -0.20946727636829
O            3.39844094300866        1.39351944791642       -0.66640151241973
C            3.29145719339834       -0.75941878710124        0.34614942400531
N            2.61576742040541       -1.80404280833463        0.82303648308959
N            3.54899912322212       -2.71752191399293        1.23008868069337
C            4.71355405348048       -2.21032774584512        0.99144131435060
C            6.03458698785021       -2.82755964839786        1.26722978070026
O            4.65072565886603       -0.97808753728465        0.43363948026157
N           -1.18821202004059       -0.12789763211952        0.00420261983413
H           -2.05866732103059       -4.28420680683531        1.53886480368572
H           -0.57803785320858       -3.81314781630986        2.41285307269751
H           -2.17705089385667       -3.33402530593249        3.03736754472578
H           -5.76729140036797        2.16478976807203       -0.42930818991608
H           -5.64825907955957        3.56553857471372       -1.52855883744652
H           -4.59169281243744        3.47097755802956       -0.09734488702504
H           -1.69711462101595        2.54660160618188       -1.73449574958555
H            1.86206127968849        1.76113999537714       -2.50811504368656
H            0.16207024377175        2.08348606378450       -2.86969943045265
H            0.73780066334076        0.41152478211224       -2.75813506724639
H            0.48835282595098        2.78672948638200        0.82784129597234
H            0.05783050432219        3.52154550853246       -0.72647880518817
H            1.74566627208345        3.12802597614642       -0.37583864811840
H            0.89014826743600       -0.42667569582156        0.11519381176005
H            5.89263965085740       -3.82392997047610        1.67870959780099
H            6.62073411109788       -2.89578706732658        0.35084611110689
H            6.59527146980764       -2.22217952759230        1.97992556504284
