42
 energy: -83.591604660125 gnorm: 0.000919998746 xtb: 6.5.1 (579679a)
C           -5.64124059690457        2.84933876750198        0.07514551006408
O           -4.71215362193676        1.82940655688939        0.36453736835654
C           -3.60536214375922        1.77981822072611       -0.49016967245327
O           -3.52462642437108        2.63419863168947       -1.40056691348911
C           -2.67446909736331        0.75004512872901       -0.22599650872399
C           -2.78821918712360       -0.27151629609688        0.83434890507018
O           -3.76137211959089       -0.32983267634946        1.65133560551631
C           -1.72250725731139       -1.18016615095932        0.86486745082573
O           -1.60499219860916       -2.26668141045261        1.73035069181939
C           -1.74199371608521       -1.99251058869082        3.11657375378662
N           -0.65889116219260       -1.10514820030699       -0.04072406092953
C           -0.66295037850717       -0.15302447090455       -1.02115085388749
C            0.47440317088497       -0.15571585221203       -2.03892998280245
C            0.29314420901840        1.03666609530050       -2.98708449379896
C            0.45425626230685       -1.45365585653101       -2.86064583433884
N            1.77576854767746        0.02291170516982       -1.39100409094228
C            2.37204058185080       -0.90282745055868       -0.53408395357974
O            2.06240043833369       -2.11838145868035       -0.50568085864850
C            3.40675735069847       -0.30060178260250        0.24051696325494
N            3.72539741710021        1.00169396387732        0.25894116345928
N            4.75694576549063        1.13439368658301        1.14822242072252
C            5.01608264250819       -0.04113477682965        1.61956870521609
C            6.05951860484335       -0.39544247395540        2.61427716946870
O            4.21553365128502       -1.00945981171156        1.10959131466534
N           -1.58778565351482        0.73859964349231       -1.10755847634659
H           -6.05788091594764        2.73991177479619       -0.93482984607259
H           -6.45029361079607        2.77274162960474        0.80395027464311
H           -5.18441481939108        3.84495618308115        0.15028148669024
H           -1.03224820315030       -1.22243606875012        3.44725714267074
H           -1.52808092191545       -2.92326386676912        3.64634385642050
H           -2.76055467883295       -1.66625318146790        3.36259992070440
H            0.02455386231902       -1.85074407801402       -0.04164253645238
H            0.28324910811117        1.97088841335687       -2.42523072502504
H           -0.65392719887373        0.94723492701309       -3.51838693055042
H            1.10612832623922        1.06500846580786       -3.71115025201542
H           -0.45722687342722       -1.48981122176468       -3.45725444144014
H            1.31340164109051       -1.48161525453252       -3.52985109091303
H            0.48449373598422       -2.33202090616466       -2.21916973361355
H            2.01878262974015        0.98598916223645       -1.19374784756823
H            5.60606479478885       -0.82337748284301        3.50918112906160
H            6.61754359905684        0.49675808026182        2.88763163785479
H            6.74472244023901       -1.13493871897354        2.19933663330951
