47
 energy: -80.188594065517 gnorm: 0.000324346555 xtb: 6.5.1 (579679a)
C           -4.57548639254818        1.26882385856453       -0.88060466222746
N           -3.17852149561241        1.06219426261063       -0.50868533112156
C           -2.74536854251951        0.06020083921461        0.33174383056760
C           -3.71096836555051       -0.93440126893272        0.96992966747313
C           -4.32948683708929       -0.29236823427660        2.22085412964958
C           -2.93338975628737       -2.19705456106230        1.38075567970051
N           -4.77860022440045       -1.30040187763809        0.04224862491995
N           -1.50552466271626       -0.06133879980678        0.67051063859589
C           -0.52316743511548        0.77374347123331        0.19321711180703
C            0.82686104801586        0.47397536913257        0.72649397945671
O            1.01235853471386       -0.44118752918909        1.54063281208903
N            1.82947215434857        1.30146307027173        0.33123099601989
C            3.21412087673452        0.97810032617430        0.57020809132086
C            3.90597669988553        0.25225095427074       -0.66681950866706
C            3.94137815537058        1.27049709270601       -1.83166542416072
C            5.30666641587175       -0.10420204956335       -0.23946521735086
C            5.71421386954449       -1.39496347485038       -0.04103314079212
C            4.84952145816285       -2.45326343449622       -0.31619049381287
F            5.29027970462200       -3.74540892592493       -0.12895064709637
C            3.58127067558508       -2.24136356681899       -0.86252043029118
C            3.12659829378855       -0.97123281862651       -1.07117782430274
C           -0.89392280817346        1.75842920051645       -0.70151814684610
O           -0.01906821055001        2.63378993171153       -1.27970892839748
C           -2.25974292929908        1.93809714703200       -1.08811209808493
O           -2.61327740632739        2.82709783050481       -1.87913413394373
H           -4.87057884423445        0.55467978572451       -1.64923108930199
H           -4.67680694328527        2.28227261243750       -1.27061968779132
H           -5.22173019915769        1.14717470315514       -0.01624562677749
H           -4.93832059242671        0.57070918640239        1.95717796465252
H           -3.54172736148871        0.02878488812344        2.90224217689626
H           -4.96205890183413       -1.01705367401104        2.73144093085473
H           -3.62339010208328       -2.92289689186207        1.80722508912791
H           -2.17010641088046       -1.95193201640515        2.11930835217316
H           -2.45061100936284       -2.63878199686519        0.50955622380270
H           -5.50797603544603       -1.78114821603538        0.54798067435547
H           -4.42295898755637       -1.93934397467373       -0.65729649111939
H            1.64739445286178        2.00603337881570       -0.36419783428195
H            3.27898386481057        0.31820288470207        1.44127101579634
H            3.76691933270674        1.89849230111012        0.78147045547583
H            4.43484754087394        0.81785888761794       -2.69181307389658
H            4.49363111387156        2.16618153136682       -1.54609264095591
H            2.93146504537785        1.55881108013257       -2.12538996456289
H            5.98641261712836        0.72060439418152       -0.05287466318901
H            6.72208294467368       -1.60626819861296        0.30262110647527
H            2.97628128726725       -3.09788048055513       -1.14539597790361
H            2.15736908969852       -0.80346533392019       -1.53072394347311
H           -0.54131772196914        3.22749033641265       -1.85001457085645
