43
 energy: -83.190120183767 gnorm: 0.000307278418 xtb: 6.5.1 (579679a)
C           -6.03926706695254        1.75354252992445       -1.76547543449598
O           -4.84055632090725        1.18748936680656       -1.22196739579638
C           -4.70434101226690        1.23527852379443        0.09418862380339
O           -5.53360148493418        1.73663580741646        0.83374599358201
C           -3.45383158270964        0.61747124158165        0.59365252817476
N           -2.58704131299964        0.10778339930713       -0.34241488577346
C           -1.49956830925062       -0.44888147356738        0.06205073617169
C           -0.55228681707123       -1.06755023773712       -0.94191222053772
C           -0.80147970251401       -2.57770813049767       -0.99829899574539
C           -0.73552096032976       -0.42163517601594       -2.31722824806722
N            0.83085985862029       -0.86912116213020       -0.48145642729025
C            1.31114879954723        0.34661535613283       -0.18318336047513
O            0.68061874202741        1.38155159885520       -0.14667752627802
C            2.77655559568578        0.31669918604845        0.15185439867314
N            3.53399906111514        1.31977440428476        0.47096909801737
N            4.75392032252962        0.78383843397081        0.66787800283734
C            5.85999976803990        1.63860639482711        1.04797251552918
C            4.71411392221610       -0.51652762297642        0.47060237542618
C            5.79072386484997       -1.51505957592997        0.57052867145160
O            3.47704950289159       -0.83529143436102        0.14240449128913
N           -1.18623593323197       -0.57259570558763        1.38325841316193
C           -1.95730884649834       -0.07683456709259        2.41944067029380
O           -1.60242231135169       -0.19483174112283        3.57785114874323
C           -3.19052291929174        0.56176956177224        1.94150860822749
O           -3.99763400215006        1.05335792052684        2.88009480694235
H           -5.99364475854553        1.59945639867706       -2.84142343577164
H           -6.08689672860010        2.82000024857346       -1.53400672814797
H           -6.91269152764278        1.25093155103034       -1.34403692004184
H           -1.82390290673244       -2.76879649543878       -1.32127064446531
H           -0.11424323519695       -3.03955455237087       -1.70424642418685
H           -0.64991617598533       -3.01912777689081       -0.01514054826637
H           -1.76019562516949       -0.57892271551257       -2.65076649222400
H           -0.54435893106613        0.64884576146732       -2.25800078672438
H           -0.04946736563005       -0.87235575446542       -3.03049474751131
H            1.46235085973318       -1.64771470791659       -0.54254076624546
H            5.85635214772084        2.51142707323119        0.39753411345603
H            5.72475311000371        1.94516977664112        2.08487329916221
H            6.78374614684236        1.07878433055049        0.93645153231499
H            6.58501234300092       -1.27976935471710       -0.13970715097782
H            5.38668429507941       -2.50188456562915        0.35395094090573
H            6.22080519760943       -1.50364188630481        1.57307753214847
H           -0.33017754048873       -1.03682863510856        1.64053569810920
H           -4.80157916001017        1.44960340596721        2.46706794059265
