42
 energy: -83.018412219539 gnorm: 0.000743852166 xtb: 6.5.1 (579679a)
C           -5.45261383273000        1.62353465347370       -1.78089560658326
O           -4.25450297431617        1.04667314280072       -1.25121618347474
C           -4.33446234091353        0.52908895287246       -0.03330955180522
O           -5.36009975272209        0.53297397040678        0.62577223050746
C           -3.06797334826426       -0.05969099121688        0.45725802435238
N           -1.97868445570100        0.00314853905163       -0.36251697763930
C           -0.84734767402506       -0.50817464813866        0.00398299219213
C            0.28128473419365       -0.38503119683140       -1.01166348860292
C            0.44084002217586       -1.69889132901381       -1.78428003516548
C           -0.04369586649272        0.74815186331191       -1.99666651625293
N            1.54659567519187       -0.06687541849526       -0.35100781146639
C            1.64439172177455        0.95704912446119        0.52600832837384
O            0.69770998379560        1.60649021161067        0.93859102860907
C            3.03483045514134        1.18931441542274        0.98425337053055
N            3.45627691120631        2.06614020166513        1.84161580734486
N            4.80312491254592        1.89366215902236        1.95083025326472
C            5.12187270536041        0.92070569159256        1.15473222746063
C            6.46283786975374        0.34631415327008        0.91265737528098
O            4.04857932332335        0.43033992371715        0.51330417413997
N           -0.70277497490456       -1.15771516003532        1.20100548510174
C            0.52443210448489       -1.82318245609619        1.63843725283761
C           -1.72921533578721       -1.22481097461436        2.14201691565348
O           -1.54741053258183       -1.76190841971657        3.22558049514162
C           -2.98969443344411       -0.63310325538238        1.70124823266429
O           -4.00662835104285       -0.70479417206071        2.56451426558978
H           -6.25681957091218        0.88449508290159       -1.77674939024481
H           -5.22538235693497        1.93222967583476       -2.79895906678837
H           -5.75005952084196        2.48533083321390       -1.17900446593592
H            0.70701926289983       -2.52241706025772       -1.12607142397653
H            1.22067385474400       -1.58773059654066       -2.53518219568310
H           -0.49659500032937       -1.93946121750240       -2.28343049453302
H            0.78630430552099        0.87046172883384       -2.68930722490880
H           -0.94495969471452        0.50404041498790       -2.55548454559250
H           -0.20409453097757        1.68074004002273       -1.45733117484575
H            2.38488321409304       -0.47956721722306       -0.72158164160185
H            6.46928319827725       -0.70871049794520        1.18737732962267
H            7.20401518469847        0.88194548664530        1.50102439339665
H            6.71173850113479        0.41800431557380       -0.14613392239795
H            1.05732279883313       -1.18020547120049        2.34006820117754
H            1.16123643026670       -2.05148179515501        0.79444237909774
H            0.24492473779305       -2.74784020829079        2.14378813369740
H           -4.81716235957974       -0.30923949497556        2.17131782146395
