42
 energy: -83.620701692039 gnorm: 0.000579046112 xtb: 6.5.1 (579679a)
C           -4.92174024335756        1.84723941207412        0.14474818077305
O           -4.40364040117846        0.55276954532603        0.14424515253539
C           -3.79469669209659        0.07764125567674       -1.24622341811346
C           -4.97861522967006       -0.75394638440031       -1.83925914151533
O           -3.42081272344065        1.06423600350613       -1.99186214953860
C           -2.61521857829843       -0.83375785901092       -0.74446737143742
N           -1.69577470833667       -0.12701419683814       -0.02297740655448
C           -0.62038441363277       -0.67849834936948        0.42431058402636
C            0.39496469553639        0.11536488896957        1.21984050279644
C           -0.06721372534548        1.57137957211647        1.32829525005025
C            0.59610981115808       -0.49786638328991        2.61274632266333
N            1.67162081250870        0.05610697772536        0.47544829431054
C            2.80458351614610        0.65808611598434        0.86258915567423
O            2.96020838355103        1.32567674011223        1.87395275366444
C            3.89484097326249        0.42451838531851       -0.12840835309647
N            3.78198441375146       -0.21392277140238       -1.25356442098010
N            5.00740977724412       -0.17634236447737       -1.85283017987024
C            5.78759147079070        0.48286636545990       -1.05395555879583
C            7.22128768759361        0.79359716184621       -1.24390714918095
O            5.14534084862992        0.89083474942860        0.05117517778884
N           -0.34426583287163       -2.00941227798015        0.17848629669840
C           -1.18562855201048       -2.82912871942268       -0.53807878773675
O           -0.85726149483942       -4.01835769656952       -0.69733978014527
C           -2.43262289345524       -2.19284201789005       -1.06177699051135
O           -3.22533040250913       -2.91773245292139       -1.74139385073091
H           -4.73551692195287        2.32007400942860        1.12069325411457
H           -6.01423916248819        1.86395244126952       -0.02840899311465
H           -4.45248018584751        2.48356832595454       -0.62840795293850
H           -4.67258728743961       -1.19871522936403       -2.78533495183013
H           -5.31341436748057       -1.53406471805755       -1.15755867024559
H           -5.80446946612659       -0.06774470322201       -2.03128353300758
H           -1.05177130701188        1.59702454335118        1.79433075800216
H           -0.14026298767474        2.01406469459409        0.33501553733440
H            0.62753733074461        2.15197902477659        1.93086230172338
H            1.29424632324512        0.09897742108132        3.19643850517637
H           -0.35947601676648       -0.53246093979526        3.13448760258234
H            0.98908248655305       -1.50937495838511        2.52789835709286
H            1.69767943204193       -0.48492788803999       -0.37829248311642
H            7.38655292844947        1.86665814379654       -1.15578083392802
H            7.81392908123193        0.29773631054658       -0.47538599457694
H            7.54324067768839        0.45262762367956       -2.22432307654254
H            0.48921194369107       -2.43086480159406        0.54872406050318
