42
 energy: -83.580978116563 gnorm: 0.000578373069 xtb: 6.5.1 (579679a)
C           -3.52513092237810        2.68708322304682       -0.60096388595357
O           -4.10908911559100        1.39149824305114       -0.60170211007128
C           -3.94561345439389        0.64709163526562        0.57335879745138
O           -4.98295464464123        0.80093043807698        1.47908590604029
C           -6.06786298166865       -0.11281950109115        1.35392835789001
C           -2.80640139499650       -0.10936334503350        0.79244062086676
N           -1.80594834242846        0.03887350021100       -0.16943205923424
C           -0.68940822616384       -0.60172948459752       -0.04068590862792
C            0.38876396885019       -0.43139239062091       -1.10909900681401
C            0.63122806582407       -1.76756341649014       -1.83135780151884
C           -0.08780608205274        0.60768440912731       -2.12980862104556
N            1.62022059462704        0.10428769912966       -0.51339796695305
C            2.62809454414277       -0.68793710757338        0.04243681663499
O            2.43246604480347       -1.83933148966939        0.49112490130354
C            3.86956014193350        0.01596283509065        0.09485341896198
N            4.09559911245871        1.25373052402477       -0.36408283665756
N            5.41565883699080        1.52055838622043       -0.12325025891441
C            5.92279067914063        0.47713505975471        0.44804549687036
C            7.32840131964511        0.29728072706275        0.88988007963349
O            5.02469106525574       -0.52077107972788        0.62923132958165
N           -0.44070011673132       -1.42747772146182        1.00593936020237
C           -1.36768121996838       -1.70281627018486        2.01860830859552
O           -1.02577879220609       -2.51185252283581        2.91944621238009
C           -2.64201121673096       -1.01966819943544        1.91685054737384
O           -3.57405519512946       -1.23403917796851        2.76630133204304
H           -3.77307780133268        3.15529508375154       -1.55546114281572
H           -3.92189488205535        3.30596888972333        0.21429905488966
H           -2.43234445723245        2.62459634227329       -0.50586988202591
H           -6.82422405060563        0.18261392796393        2.08345945196746
H           -6.50652559743108       -0.07241756068395        0.34902661136334
H           -5.74287346068570       -1.13979746175929        1.56541066069243
H            0.89070326163933       -2.55757743728810       -1.12916604431593
H           -0.27559871861623       -2.05685099154589       -2.36196765454121
H            1.43978921446880       -1.66013017133129       -2.55291556738574
H            0.65132038158867        0.72687040974358       -2.92026674398274
H           -1.03031425835421        0.28764835243104       -2.57236503485104
H           -0.24731890122619        1.57013996549845       -1.64378045187024
H            1.98270090004335        0.91230398970309       -1.00259425536276
H            7.36837438169259        0.07314123393150        1.95616903314551
H            7.88823980503660        1.20835629776775        0.69276646427205
H            7.79253495529506       -0.53106470531233        0.35379879855124
H            0.45347655917506       -1.90445213823786        1.05831267222694
