42
 energy: -82.954714473367 gnorm: 0.000711580384 xtb: 6.5.1 (579679a)
C           -5.86477313949078        0.99340151464354        1.26644048594622
O           -4.59165900070593        0.64735086947808        0.72388133858728
C           -4.36546330410331        1.03590724620822       -0.54666509594933
O           -5.19273735965919        1.64944523549495       -1.18746614333685
C           -3.03011057324309        0.62225592395737       -1.02427266481405
N           -2.27067415220171       -0.06186927406106       -0.13242550461309
C           -1.09018897112132       -0.48205230721419       -0.46136812495708
C           -0.25323614663214       -1.26785361241857        0.51478748493522
C           -0.18446441021134       -2.73606590208413        0.08521295289720
C           -0.80275433598282       -1.12822187033917        1.93435461900290
N            1.12561237646801       -0.73817224436486        0.46020910344351
C            1.34040484387719        0.56911358109710        0.56268889574440
O            0.49249629689374        1.42876476870944        0.61151139172372
C            2.86545153574540        0.97763750051714        0.59190409067640
C            3.14557154165067        1.64972120344355        1.93511753803420
N            3.09411472801326        1.82042181502341       -0.53026140772475
N            3.94329887589309        1.24232109837804       -1.31844895494172
C            4.30652152150252        0.08385082436815       -0.77059128443337
C            5.27297615017700       -0.87230555978798       -1.32677570580258
O            3.70229602175745       -0.13837788972683        0.37769814234044
N           -0.56938950143939       -0.29006516761137       -1.70847369581311
C           -1.20288736891573        0.41591202618139       -2.71025320877336
O           -0.65401396290807        0.57761773432584       -3.78612783310787
C           -2.58068715433644        0.93662976925083       -2.35230493723752
O           -3.21911463455501        1.57351981852300       -3.19115155348844
H           -5.87368424534555        0.63714026768600        2.29470028799795
H           -6.66410154808568        0.51332786662272        0.69510022647946
H           -6.00787884325734        2.07741780866195        1.24282220383378
H            0.24558288815845       -2.81983436510677       -0.91104482076151
H            0.43285566625232       -3.29587183184226        0.78436021899117
H           -1.18652410541815       -3.16228449905694        0.07824866971545
H           -0.16253906888361       -1.66278272072564        2.63185359300302
H           -0.84620131783704       -0.07723308067806        2.21684200339870
H           -1.80767130383871       -1.54579180813347        1.97305181063204
H            1.88683584808146       -1.39009099618903        0.52530051309236
H            3.00411177698822        0.92563928609996        2.73344544679784
H            2.45615988747508        2.48210989689089        2.06115562560917
H            4.17199917046623        2.00822803978969        1.94654219890108
H            6.27034331551070       -0.62659234259142       -0.95469194096645
H            5.03409542013324       -1.88238145591106       -1.00309220723981
H            5.28767129370633       -0.80630162017985       -2.41262390471733
H            0.34235428941356       -0.66161954733037       -1.91918985311128
