42
 energy: -83.616905168614 gnorm: 0.000480414771 xtb: 6.5.1 (579679a)
C           -6.91032540792370       -0.91778297480887       -1.14353470380422
O           -5.82431531806998       -0.00662073773610       -1.18278321446013
C           -4.65558264699599       -0.45700558248381       -0.64699669057450
O           -4.58927774782635       -1.59045679079580       -0.17948617304826
C           -3.56138240206457        0.49657612665268       -0.67969402625857
N           -2.40037952024332       -0.00078378458385       -0.10707932871929
C           -1.34602663063065        0.72549829573083       -0.04186114823755
C           -0.07624235197466        0.23409639721003        0.62447467327182
C            0.02379848548838       -1.29449586836445        0.50100783382260
C           -0.12907214138261        0.64622659657713        2.10302458427295
N            1.05507403477915        0.91797481331810       -0.03465391781237
C            2.36401579304974        0.53107135728539        0.45290567823229
O            2.95397072109099        1.48335564209529        1.33290550209307
C            3.59124671552337        0.92345141164660        2.46115033934422
C            3.10819241987546       -0.30031196450434       -0.34350074696238
N            2.60681396817223       -1.07554670506412       -1.33758348144420
N            3.66054571286846       -1.85470332262422       -1.77739063179577
C            4.69516778710741       -1.55611920538512       -1.07818454657893
C            6.05994634658038       -2.13892863212314       -1.18573730945658
O            4.45107370646998       -0.57937675914103       -0.13734336578266
N           -1.32476908471533        2.01746058228007       -0.52392744471252
C           -2.38517774930242        2.62829282052276       -1.12693656033286
O           -2.27718802855889        3.78361320871521       -1.54469303574932
C           -3.64849693926042        1.80332959458801       -1.22585684813675
O           -4.65212597309315        2.31410645921758       -1.76586174602804
H           -7.14711139458651       -1.19793877486103       -0.11178994575548
H           -6.67883526166657       -1.82693122302547       -1.70843314845564
H           -7.76704595245714       -0.41609158247575       -1.59206600166640
H            0.20239682742135       -1.57558143254073       -0.53796548062123
H            0.85081649565119       -1.66250562861872        1.10729812358150
H           -0.90319065115003       -1.75533184734926        0.84287160979709
H            0.74797867839097        0.26990437260506        2.62794512956162
H           -0.14918193049005        1.73279351295247        2.18706309040336
H           -1.02163904386181        0.23603422767144        2.57483381292452
H            1.01828548473279        0.65939804750648       -1.02541072198219
H            2.94920895821627        0.18960625225958        2.96972434965567
H            4.53196608573227        0.42519831004762        2.18697922349240
H            3.81543143132885        1.73854039337963        3.15482903584413
H            6.79807684098373       -1.36222636033012       -1.39253966164731
H            6.34605963266187       -2.63352552013131       -0.25586845979759
H            6.07589843896847       -2.86824924276488       -1.99353245456888
H           -0.45859738883524        2.53595051743845       -0.44630019191153
