42
 energy: -83.006100641779 gnorm: 0.000340540556 xtb: 6.5.1 (579679a)
C           -5.95822360731074        0.36748771299097        0.94147570244370
O           -4.83458731513339        0.94535601964940        0.25809115788596
C           -3.68157208204428        0.32033025177661        0.36736221347429
O           -3.49847279832959       -0.69957376070220        0.97682188348676
C           -2.55545972707128        1.03799965522707       -0.43173433870060
C           -2.86607528945609        2.51770932138598       -0.65249962776649
N           -1.35894772339500        0.90192128868753        0.36654708487201
C           -0.61386812767579       -0.11816194873993        0.24642455013982
C            0.55812349286384       -0.29170216367890        1.20229420408351
C            0.69173479770355        0.96144277348210        2.06889762852608
C            0.32201870549199       -1.52021915256436        2.09039217311727
N            1.81563429878794       -0.42007381691767        0.45330010089033
C            2.23495210155793       -1.50223746273753       -0.22833226916960
O            1.58105802673797       -2.51650207362388       -0.43388002244612
C            3.60981244568886       -1.34453631696375       -0.75796233523012
N            4.26704925037940       -2.16309526965056       -1.51912153394731
N            5.48234300456740       -1.59491034501095       -1.75129890340852
C            5.49468987473831       -0.46411182219586       -1.11631566017337
C            6.59185897749745        0.52418223603022       -1.04074455442361
O            4.33849711371261       -0.24415003984957       -0.46919825688829
N           -0.81904660826250       -1.11828138792238       -0.68829206201176
C           -1.68408745274236       -1.02067364906276       -1.73115900280242
O           -1.78155218861199       -1.86920799943813       -2.59047278345524
C           -2.51311551900618        0.27003834938096       -1.74167717300603
O           -3.12164151784541        0.61830492598441       -2.71973468035056
H           -5.75479769198984        0.32415833019906        2.01273996326749
H           -6.14464464532789       -0.63917541404982        0.56231486072527
H           -6.80648872071164        1.01715671896078        0.74009173614630
H           -2.01319219436980        2.99295503804582       -1.13312609663045
H           -3.05071614064775        3.00116460527281        0.30366548620351
H           -3.74206480596282        2.62361936245017       -1.28952795104233
H            0.85305929747553        1.83779352760147        1.44338808603327
H           -0.22092372784090        1.10916375250475        2.64341770360601
H            1.52971220055172        0.84971534503248        2.75365929791358
H            0.20912433558858       -2.42507320902298        1.49733898489812
H           -0.58422982641632       -1.36609207841666        2.67444106469125
H            1.16531749635051       -1.64384447356248        2.76719850362490
H            2.46395093309234        0.34413121569052        0.55449229047819
H            6.21834795544683        1.51492962302845       -1.29688336543882
H            6.98169806445652        0.56574433649707       -0.02328439222838
H            7.39016913729074        0.24149895876245       -1.72296823585497
H           -0.19544079981949       -1.92517996453901       -0.66962443153582
