46
 energy: -86.332889871257 gnorm: 0.000474559924 xtb: 6.5.1 (579679a)
C           -3.78368699881024        0.35530706890897       -3.44193631551253
O           -3.10376544804514        0.07899602098281       -2.20786821942282
C           -3.86384465291841       -0.23092239191311       -1.17061918272334
O           -5.07737086924206       -0.29185718916865       -1.21152040001312
C           -3.09599850542274       -0.50388638501584        0.06612844192916
N           -1.73503995020226       -0.40685790571455        0.00260342328591
C           -0.98846259747103       -0.63067081053379        1.03921178222002
C            0.51319940060466       -0.53126925618025        0.73454281338699
C            1.02564885013252       -1.93539580980927        0.39547805985225
C            1.38742995440563        0.14343041364228        1.78468087862606
N            0.52723384803984        0.29499285404272       -0.54820689456564
C            0.48753884228010        1.76577879234544       -0.37129938856762
C            1.47105574248301       -0.16129571337175       -1.61440103099337
O            1.03518432819158       -0.90082592079636       -2.44527582064831
C            2.82499605352993        0.33940202938302       -1.58029167092292
N            3.74370607296429        0.05057989100605       -2.46745240030495
N            4.86526411565576        0.67731751090379       -2.09385509808540
C            4.59536850056161        1.32624853492308       -0.99055031281921
C            5.50264172186114        2.16884025451594       -0.19149772664744
O            3.32358640362909        1.14875918809120       -0.62094940277412
N           -1.51257810573740       -1.01231613737930        2.23295592915655
C           -0.69840275235157       -1.33538072658040        3.40728092698295
C           -2.90365273266695       -1.10621836033607        2.43667784279638
O           -3.35852073996652       -1.40282090827093        3.52342508088050
C           -3.71056020746500       -0.83568337844801        1.24412325773865
O           -5.02577246209610       -0.93874671298864        1.39666546596352
H           -3.01127069902792        0.56472300861079       -4.17845495011263
H           -4.37619027522549       -0.51222354799246       -3.74084714800990
H           -4.43777265328784        1.22063327297502       -3.31621197512016
H            0.45892123760141       -2.35754512284845       -0.43336185536969
H            2.08155823956026       -1.89714785068870        0.13367716056483
H            0.90842107490169       -2.58070100337927        1.26360065734279
H            0.88680660792777        0.99954746561184        2.23119602220809
H            1.65066879056056       -0.56456858789660        2.56616450138976
H            2.31551147157484        0.47415379483468        1.32522234186842
H           -0.44680312416433        0.04657849423776       -0.91396890704783
H            1.38795245202850        2.12354435642080        0.11237324289329
H           -0.38777110567000        1.99029728763960        0.23317357697770
H            0.38736155851249        2.21013267584059       -1.35853457446043
H            5.48753532074043        1.84367208837698        0.84839936562785
H            6.51350148119281        2.10575176161295       -0.58824082131715
H            5.16149909523866        3.20449454594295       -0.22010840777567
H           -0.34064650044376       -0.41779161567040        3.86983195236773
H           -1.33025631685364       -1.87299108137582        4.11419585567759
H            0.13459370376226       -1.96730296610843        3.11774591200206
H           -5.48881617088409       -0.73876392837909        0.55093101147763
