42
 energy: -83.649913333535 gnorm: 0.000647950383 xtb: 6.5.1 (579679a)
C            7.11571279424530        0.64827285658654       -0.49076204154951
O            5.86746258634009        0.75288478352250        0.17338693621436
C            4.78936640506148        0.28985694813149       -0.52059563210172
O            4.94051536054300       -0.19369918768704       -1.63941274036569
C            3.51788870608233        0.42553598248746        0.16534897451664
N            2.45031421644581       -0.04774236530505       -0.58529259095812
C            1.25582377508246        0.01708493045981       -0.12052201938099
C            0.07122543577905       -0.53764085374774       -0.91453496854846
C            0.25192530628948       -2.06286117159589       -0.95217230455088
C            0.16141382763313        0.01973984201707       -2.34699415605249
N           -1.14964208566581       -0.07453235577479       -0.24975907016556
C           -2.38119800908726       -0.98766568353892       -0.13592266178844
C           -3.14150348028783       -0.94477350613777       -1.50503744231212
O           -2.16607898666971       -2.17755133526935        0.33384107977250
C           -3.24360877328111       -0.13684541820988        0.87069871263644
N           -2.82507018353905        0.43436202647424        1.95647591739411
N           -3.93703073155391        0.93846774529895        2.60380633807884
C           -4.95095912882514        0.63235171587206        1.86846972394619
C           -6.37787614755657        0.95363013269653        2.11627491584916
O           -4.59083939573377       -0.04860162557857        0.76198148090458
N            0.99108223132598        0.53344650184327        1.12427581124004
C            1.93496796297654        1.03284545810630        1.96922290779490
O            1.60670345147653        1.49336280782418        3.06669808713265
C            3.35891078876424        0.97631554187117        1.46334969983769
O            4.27055634833649        1.40939736444025        2.20072774307471
H            7.35381521077733       -0.39702199089171       -0.71377481779443
H            7.10600967724831        1.21235491151600       -1.42909346790004
H            7.87115417184366        1.06144397807364        0.17672130763257
H           -0.52589683909996       -2.53648586326135       -1.54776149847262
H            0.22798658214306       -2.48238409904077        0.05335803837646
H            1.22226299880876       -2.28332960824461       -1.40169108223464
H           -0.60561362264877       -0.42319700034451       -2.97919574277323
H            0.02780088280656        1.10125449027871       -2.34238671552255
H            1.14168820840994       -0.20684527819342       -2.76808680474598
H           -1.45955534933263        0.77550503674129       -0.70938617646207
H           -2.56770603632145       -1.48738559576668       -2.25350191832489
H           -4.10301183748388       -1.43995829290844       -1.37833724211208
H           -3.30588150503310        0.07691335211571       -1.84153187518877
H           -6.76446154732399        1.58805805423312        1.31911336873785
H           -6.97358041905561        0.04163065063747        2.13945083574411
H           -6.47454305334785        1.47302200455658        3.06655367823156
H            0.00946920342578        0.58078411571093        1.39599641219058
