47
 energy: -80.234283886594 gnorm: 0.000645701464 xtb: 6.5.1 (579679a)
C           -3.88294088776704        1.53194635265585        0.37551284855186
N           -2.59290136500026        0.87541814975111        0.57251479041221
C           -2.21786936749151       -0.27061174615831       -0.13984292241814
C           -3.21840168288939       -1.06380475474401       -0.98111883766945
C           -2.44365304879574       -2.01428681142647       -1.91229213248965
C           -4.11910026574925       -1.89880535027721       -0.05721208992776
N           -4.06023428576063       -0.18042934323070       -1.79257811451975
N           -1.05739943531823       -0.79812170866028       -0.01197173979617
C           -0.09611474531313       -0.26097939308008        0.87285496475027
C            1.04655211148274       -1.11732242037799        1.11779884937174
O            1.23691430891138       -2.20722475567947        0.55395610061606
N            1.93332196305777       -0.68012715726508        2.08978922563245
C            3.25851651364176       -1.27675031841743        2.14294233662733
C            4.17038462789262       -0.66103590898408        1.10050322496586
C            5.01938974813584        0.38919395690977        1.44235179773293
C            5.83635100827046        0.98342231530224        0.48929053297273
C            5.78063141308873        0.50620950935641       -0.80673108212453
F            6.57250803532585        1.07292599373185       -1.73857351390833
C            4.95024766033667       -0.53351010204325       -1.18441916704407
C            4.14228944961669       -1.11499870094315       -0.21767908810580
C           -0.28129372033371        1.00803091591181        1.39928561631140
O            0.41035122410652        1.62169531553277        2.25531624627245
C           -1.48673991858204        1.80136566963113        0.82836625900954
C           -1.05072305241999        2.53239160923941       -0.46335791699760
O           -1.86664753830398        2.74780320722092        1.79579335028241
H           -3.95118839285895        2.02908030898831       -0.59729732698919
H           -4.68847408222098        0.80441500027574        0.45039238050761
H           -4.01714774804021        2.27550692290784        1.16374358561492
H           -3.14282990414743       -2.57077419538405       -2.53476111573278
H           -1.77581863540903       -1.44262892224880       -2.55626560453416
H           -1.84681097936234       -2.71615992815147       -1.32931185507973
H           -4.72237834955064       -1.26075968541257        0.58703802497009
H           -4.79038893757673       -2.51807702498622       -0.65161526777267
H           -3.50697354428279       -2.54844656802100        0.56877002233691
H           -4.80274557253288       -0.72320707341267       -2.20990179950705
H           -3.51115716568776        0.20443748753910       -2.55146148636252
H            1.90082982401104        0.30620451909446        2.32818698220552
H            3.66982767127376       -1.11560929739851        3.14376499750794
H            3.16087555306492       -2.35430786630992        1.97145845985571
H            5.05359699648421        0.74574585030063        2.46546447846541
H            6.50382870956037        1.79546049954629        0.74535690760582
H            4.94398735422620       -0.87888910791553       -2.21011762634522
H            3.48320425462813       -1.93275279689126       -0.49064117036722
H           -1.11818850435547        2.77580576638228        2.43137156051477
H           -0.81580474043167        1.80981999176682       -1.24300164469624
H           -0.16668513291017        3.12914141775942       -0.24487312156309
H           -1.84300042401231        3.19360017761400       -0.80910791914095
