42
 energy: -82.954762846161 gnorm: 0.000572058651 xtb: 6.5.1 (579679a)
C            7.12140223034795        0.52531580856585        1.82035651207294
C            5.85805992995870        0.00780182826629        1.25068417313417
N            5.43425426380908       -1.22038710393996        1.24593789864036
N            4.23254477165875       -1.21367663190039        0.60503830803717
C            3.99837441609571        0.01757253829819        0.26161231091759
C            2.80429072870982        0.51256811721431       -0.46827493068943
O            2.61490653780034        1.69472076475091       -0.71087354009020
N            1.98278350440947       -0.50300422207980       -0.79155446554624
C            0.77162000665580       -0.41103016865735       -1.62092179845957
C            0.41110416117713       -1.84148924772742       -2.02707711663256
C            1.03527758780497        0.43548659803101       -2.87284897329477
C           -0.37311236757876        0.18526654603189       -0.81548549607036
N           -1.45168735596402       -0.48707255788657       -0.67389396353874
C           -2.53475906116890        0.05362734112641        0.02034357660005
C           -3.59166098534491       -0.85393164715789        0.08500134291724
O           -3.78697801236325       -1.96474801531751       -0.30434276825294
O           -4.82485513791924       -0.26810830872488        0.93380680190784
C           -5.49299447155144       -1.32558898993892        1.64940401637086
C           -5.71510256654917        0.51290534797965        0.10663564199429
C           -2.49749970362140        1.37433234206452        0.57557458534781
O           -3.43344837793484        1.94386383249003        1.13900883482805
C           -1.17375955937932        2.10609072861795        0.42299543429685
O           -0.96277265851418        3.21147412726631        0.89205982993846
N           -0.21422316857483        1.44796873748953       -0.29455332488448
O            4.99352388113371        0.83591116920986        0.64675608985892
H            6.90808511658491        1.24411445197862        2.61148416404342
H            7.69578649292685        1.03508343290296        1.04720540841118
H            7.70384258442137       -0.29845393309290        2.22487682254779
H            2.27750955446120       -1.43309115460387       -0.53210216093069
H           -0.49034537711187       -1.83185155250054       -2.63743751116209
H            0.22323778627946       -2.44962253950708       -1.14331959621611
H            1.22508800547952       -2.28058482128411       -2.60053121159087
H            1.88885477921797        0.03143781465028       -3.41428573847097
H            1.23873461318731        1.47241986149621       -2.61556680159322
H            0.15734475044499        0.39983370376194       -3.51605514071043
H           -6.28889277162616       -0.87073943248652        2.23463876750851
H           -5.89942772013895       -2.05627703522452        0.94798194132323
H           -4.75362089717317       -1.78738747184571        2.30095606759395
H           -5.11156521994984        1.26785895106835       -0.39249703861075
H           -6.21549165010060       -0.13219871933635       -0.61696759429626
H           -6.43806290998480        0.98782349978429        0.76731409908451
H            0.67363626998752        1.92576501015265       -0.42569045634647
