42
 energy: -82.954446331554 gnorm: 0.000282659737 xtb: 6.5.1 (579679a)
C           -5.94816979881005       -0.80995407828514       -1.21280482445430
O           -5.00560170462910       -0.09981990712635       -0.38647032318485
C           -3.73412552782937       -0.27554122821328       -0.62714504551523
O           -3.24711227602039       -0.98617363499237       -1.45318634299022
C           -2.85829974812917        0.61184816426017        0.36813188958134
C           -3.63082847881098        1.87982049826456        0.74569482020843
N           -1.67337234816759        0.92415666247238       -0.35470224723970
C           -0.60194877517464        0.22075083260004       -0.16085274025043
C            0.57451816005899        0.52301129351602       -1.07609642739163
C            0.37206034663526       -0.28923561514422       -2.36611081628342
C            0.65076707815502        2.02350614346233       -1.37388113078429
N            1.78877669004791        0.08064963489912       -0.39582988775637
C            3.02331641404021        0.18881916463410       -0.91200383216108
O            3.30396006421950        0.67135650406119       -1.99783112671219
C            4.04508774240707       -0.34891542623242        0.02813216445553
N            3.81573084592175       -0.91337599845749        1.17501881167317
N            5.03032864729571       -1.23424318833849        1.70563335170269
C            5.92272233532329       -0.84282473006562        0.84821879174090
C            7.39389295332946       -0.95417307454094        0.96036301464445
O            5.36393890919712       -0.27811122103903       -0.23268033989143
N           -0.40374229304279       -0.78121110019036        0.72980394037248
C           -1.37321508378576       -1.10098798496506        1.58795265866565
O           -1.33977391900092       -1.93484469103233        2.49680748112317
C           -2.64595314389213       -0.33437290510593        1.45911647261070
O           -3.55623289508058       -0.61606984457079        2.32004182101525
H           -5.99131651552601       -0.34036532706083       -2.19637698464947
H           -6.90868023702288       -0.73185723582539       -0.70956477483224
H           -5.64226923658611       -1.85259958707514       -1.30961983809516
H           -2.97828702949302        2.52070915257206        1.33475036755122
H           -4.51054456779395        1.62174958256547        1.32967235453519
H           -3.92967909955014        2.40670050797206       -0.15696652278246
H           -0.58609782210972       -0.02303109615060       -2.80989328201256
H            0.37377055796473       -1.35415012780209       -2.13648335845754
H            1.16979468862880       -0.07297391762179       -3.07471756393496
H            1.45984178614075        2.23179269599079       -2.07136188585408
H            0.82145622330594        2.57677111726783       -0.45145162176439
H           -0.29091323191703        2.34969293302163       -1.81175765585885
H            1.66038104480401       -0.38828636875108        0.49453737802040
H            7.84543099531357        0.03681958389996        0.91575470338727
H            7.65357353932563       -1.43068859998267        1.90233838157463
H            7.78868834465443       -1.54209438500056        0.13200023342687
H           -3.20187063438473       -1.33225219788354        2.91450993657121
