42
 energy: -83.652423667085 gnorm: 0.000390724556 xtb: 6.5.1 (579679a)
C            4.73277121318673        2.96616902337131        1.35951138247715
O            3.89669492015124        1.93265581219901        0.86674496737642
C            4.38388380441659        0.65680070833405        1.01762645586711
O            5.47214976605910        0.48096501799069        1.54934470156545
C            3.48336993070859       -0.35088556128711        0.49434457627511
N            2.30940766896449        0.13395219902757       -0.06018829997220
C            1.43501320632279       -0.67152285322035       -0.53975135280602
C            0.15585548092941       -0.17202671983099       -1.19261833356315
C            0.37776964648261       -0.21212774750715       -2.71662668081597
C           -0.10350191235599        1.27107687327283       -0.72810388706320
N           -0.89712080100129       -1.12479586737209       -0.82144650479783
C           -2.34111833867593       -0.68832119870599       -1.11288502639639
C           -3.12539042021934       -2.04765800539020       -1.22349292738908
O           -2.50994788846760        0.10951502617254       -2.11970276669039
C           -2.83469080693219       -0.09333088931066        0.26163192432182
N           -2.17745161750276        0.01009972344548        1.37499784886298
N           -3.03759668420462        0.56232262961529        2.30587771973020
C           -4.15568338868148        0.75108251165885        1.69122702645968
C           -5.40526128246078        1.32787501370982        2.24457171350742
O           -4.10168341229992        0.35883586021311        0.40345255561041
N            1.63026210115701       -2.03824685143950       -0.53229172676946
C            2.73892088574408       -2.65327070819880       -0.02689816072263
O            2.83289106260502       -3.88240197949367       -0.06059598561428
C            3.79184986134822       -1.73538926215176        0.55273350831379
O            4.82837860741237       -2.23854957413066        1.03189618979223
H            4.88066076010207        2.86792807832799        2.44041692493083
H            4.23729694269790        3.91213575646385        1.14323667373318
H            5.71189991263716        2.94460558571086        0.86937908859464
H           -0.50125818795536        0.16321693094803       -3.23871529809383
H            1.23938398860324        0.40027997506971       -2.98468537808807
H            0.56142126344455       -1.23869076511741       -3.03394729882180
H           -0.27120441255300        1.29505043862378        0.34899376869270
H            0.76807124105272        1.88485358474887       -0.95863519847682
H           -0.97317905728534        1.68579780432419       -1.23564773990639
H           -0.84033859251339       -1.29064335791576        0.18424003418752
H           -4.18683238932574       -1.82951175148139       -1.32494855228125
H           -2.96278003472907       -2.67378441142767       -0.34829409954845
H           -2.78018870738231       -2.56860875175724       -2.11441578178141
H           -5.29200564308365        1.48498945251096        3.31427766396254
H           -6.24265202357266        0.65549972712911        2.06350222903281
H           -5.62722448618502        2.28082021427766        1.76407299297990
H            0.89915782336308       -2.62676069140600       -0.90819094667574
