33
 energy: -57.821291329061 gnorm: 0.000556534181 xtb: 6.5.1 (579679a)
C            2.78709377976247        2.28295335820222        0.03308634723832
O            1.95011025820642        1.11144089372870       -0.13004541361503
C            2.31842799198325        0.02403686274386        0.46563608607178
O            3.28486272054297       -0.18846928535411        1.12206456442245
C            1.22942528827809       -1.15651989450445        0.22127672787885
C            1.64670297631510       -2.33889296535366        1.09897152908798
N           -0.00140159747030       -0.58484297875674        0.65767610240048
C           -0.83376393939398       -0.10313476924384       -0.18573706789567
C           -2.14970463360933        0.49305497479996        0.26934426524280
C           -3.07437409132625       -0.66893643115798        0.65808364615602
C           -1.90631630522202        1.42151680269105        1.46612899037636
N           -2.72619953260461        1.20822672626237       -0.86125021388721
N           -0.64839934234874       -0.13462440042441       -1.55053848492190
C            0.38957714049985       -0.73448000092805       -2.17064532045073
O            0.56837977280537       -0.82723072674814       -3.36548660667081
C            1.34715501164221       -1.36550164001496       -1.21138166209357
O            2.30992136353185       -2.04161323581912       -1.70842727515142
H            3.82033104767221        2.02434407377280       -0.19991379546319
H            2.39969479861187        3.02096278574303       -0.66391366478124
H            2.70743556363900        2.63908944373036        1.06018491418334
H            2.63528664073097       -2.68509868507690        0.80578978238338
H            0.92306702184351       -3.14107996359982        0.97567018089683
H            1.66148926211007       -2.01897323694110        2.13832951042274
H           -3.25256015269506       -1.30947845035939       -0.20438057239960
H           -4.02548901853425       -0.27375101087836        1.01075305905485
H           -2.61660617391485       -1.25829060828474        1.45131936197214
H           -1.24037834662079        2.23320028241289        1.17802937291295
H           -1.44965246748073        0.86217575346447        2.28188409736519
H           -2.85332844179587        1.84043550392173        1.80049769991894
H           -2.37715744327384        2.15614685288493       -0.88553543859420
H           -3.73187474339956        1.24771647476734       -0.77490251752426
H           -1.39857285924137        0.30547000557422       -2.08886849252421
H            2.30681745075629       -2.03985151125322       -2.69370171201236
