42
 energy: -83.583547435541 gnorm: 0.000764610576 xtb: 6.5.1 (579679a)
C           -5.26468862472357       -2.04589990227672       -0.92048597677113
O           -5.08996086235398       -0.73826158829577       -0.37777368268516
C           -3.83266164779548       -0.17956536069852       -0.51618864371008
O           -3.66665247693302        0.57453735646796       -1.68570625202124
C           -4.60562642241375        1.61736548351390       -1.88530526864928
C           -2.78367787309568       -0.32785527017974        0.37105034752695
N           -1.64633110910271        0.42823486512446        0.07445502147046
C           -0.62784409958141        0.38482273741820        0.86497578553759
C            0.60589312257632        1.22402311344081        0.57473010738575
C            0.63918867688174        2.40208610302345        1.56245119796135
C            0.55386545497887        1.73385834918424       -0.87243447599730
N            1.77050305387683        0.35931238249386        0.79473612289691
C            3.06120057357440        0.80001860278212        0.46611067538201
O            3.37510127589610        2.00752338023480        0.39650091310374
C            3.95503982837819       -0.29924634325712        0.28551009596349
N            3.63038064259795       -1.59645702053586        0.32593564661104
N            4.78302819308589       -2.29227989183650        0.08209773462187
C            5.72686640918400       -1.42657990102765       -0.09177483417388
C            7.15452961127870       -1.70733498731140       -0.38531117848229
O            5.30153768210153       -0.14484506955360        0.01661638091384
N           -0.60969877914718       -0.36721300163547        1.99929105177917
C           -1.66240200996567       -1.20902875935969        2.39423017943389
O           -1.49977317118400       -1.87670201312970        3.44936124862485
C           -2.82339230794475       -1.21292120286896        1.53202053675302
O           -3.82149517964712       -1.97506138584349        1.77594614392274
H           -4.95182074634007       -2.08459914966244       -1.97086088543601
H           -6.32915301431962       -2.27946896663717       -0.85773361158501
H           -4.69689009727665       -2.78782170877216       -0.34479185038589
H           -4.39868728447184        2.05433056558496       -2.86392485200085
H           -5.63467552789761        1.23657343110803       -1.87753917369816
H           -4.51143373805787        2.39669703722274       -1.11613971229472
H           -0.28021728300238        2.98041864729141        1.47349373769084
H            1.48600783878095        3.05458548677603        1.35701677718060
H            0.72355046291636        2.02791467138491        2.58243331349733
H            0.57826378628903        0.89352706145617       -1.56618910430812
H           -0.37433871718817        2.28356125543612       -1.02763384792855
H            1.39663914569849        2.39167466400924       -1.07741332122375
H            1.61351261196265       -0.60923599981589        0.53193330539525
H            7.31253965779051       -2.78234722548249       -0.42774012443660
H            7.79352694508343       -1.28014301027125        0.38787654029535
H            7.44020587786576       -1.26439577132545       -1.33983533141927
H            0.21004212164834       -0.36379766417210        2.58504726325894
