20
 energy: -38.324783087925 gnorm: 0.000430709363 xtb: 6.5.1 (579679a)
C            3.53473948109642       -0.84048802334837        0.15055751436353
O            2.26548487414563       -0.23775644553501        0.27510355409390
C            1.18254164445583       -1.04580081546930       -0.20365348364361
O            1.43915078179560       -2.19359069043653       -0.64545887899272
C            0.02072619096947       -0.31948066132403       -0.27839625328691
O           -1.24698831583966       -0.94412782918052       -0.50009165631703
C           -2.12564842616990       -0.15317592030509        0.12024160059533
C           -3.56559628778526       -0.53861933858180        0.09428064793145
N           -1.67161850233539        0.89312476833557        0.69803964078460
N           -0.24337525621986        0.90374416287754        0.48660928323029
C            0.06981317995590        2.11737637432135       -0.28647800397071
H            4.26958144896727       -0.14282985922852        0.55789961527467
H            3.78264159915917       -1.04703089339333       -0.89960715492666
H            3.59149602578391       -1.78508715098777        0.70906381491318
H           -3.71585708413150       -1.47816070065942        0.62625849501956
H           -4.16325099815519        0.23950089551037        0.56297411631508
H           -3.89328559748087       -0.67716759643543       -0.93532232996415
H           -0.21746088404569        2.98870530440068        0.30080592313194
H           -0.45772359622375        2.13135167124898       -1.24546957097980
H            1.14462972205799        2.12951274819145       -0.46004987357206
