20
 energy: -38.277725912798 gnorm: 0.000676401167 xtb: 6.5.1 (579679a)
C            4.13181731175373        0.24932252117880       -0.19348016155181
O            2.74809099920211        0.49634656009117       -0.17832871171299
C            1.94176437152960       -0.70776558328204       -0.10297297335175
O            2.54176735634381       -1.83420691019986       -0.05440820153574
C            0.60874479491704       -0.46136624537299       -0.09575825482157
N           -0.45228342725195       -1.40760973858083       -0.03011703337703
N           -1.53901484820740       -0.64929188540788       -0.05145839680871
C           -2.82818887770686       -1.29744763812300        0.00551181121638
C           -1.31643257100502        0.64623608267630       -0.10902296834098
C           -2.30302342194986        1.75402236130924       -0.16930188232978
O            0.03301973301757        0.89067891072430       -0.15423465048687
H            4.46736218255527       -0.27042622892649        0.71687122832607
H            4.63935796877364        1.21621126710938       -0.25130460322084
H            4.43218207252581       -0.35835084603479       -1.06063948698108
H           -3.33304269825591       -1.04488429659099        0.93774964967965
H           -3.44345516773966       -0.97855777474076       -0.83452053948186
H           -2.66454311814472       -2.37198623660751       -0.04348263988764
H           -2.41451324658637        2.13672831288217       -1.18813597209658
H           -1.97333546994540        2.58005982522494        0.46268801846103
H           -3.27627394382549        1.41228754267108        0.17617176830166
