33
 energy: -58.522073309279 gnorm: 0.000888653114 xtb: 6.5.1 (579679a)
C            4.07515943361865        1.58771146107974       -0.56827299815949
O            3.55387531873348        0.35194400099355       -0.09432864232871
C            2.23684373468453        0.38606586769496        0.35748076078814
O            2.10751995186508        0.75356800719808        1.70652343307397
C            2.00903281332636       -0.32621500680042        2.62491468092613
C            1.14867709705960        0.06327169191330       -0.40596006117945
N           -0.08945662128799        0.02434983241345        0.26910789258890
C           -1.15599955722269       -0.30769620427407       -0.36741337990837
C           -2.48780710248967       -0.34937331297433        0.37523239155647
C           -2.24276505325853       -0.30624448007914        1.88727882954436
C           -3.34664925026669        0.84591266505200       -0.05738776141179
N           -3.22410630943007       -1.57660870725686        0.06510729869831
N           -1.18248593988772       -0.61781954394256       -1.68842778419155
C           -0.00680262537913       -0.57414005458509       -2.49777464285224
O           -0.11350756908219       -0.83703636807013       -3.72593326610602
C            1.13979531663801       -0.23694758750474       -1.80619694610056
O            2.33877541908114       -0.15179140959699       -2.54297380850352
H            5.10518009210943        1.40621096754369       -0.88245930338068
H            3.49762863092572        1.95571581711328       -1.42571197597300
H            4.07019970480561        2.35174576064248        0.22014930129208
H            1.97695645421777        0.10156364749149        3.62958447129209
H            2.87212454382130       -1.00084503424521        2.54902482399838
H            1.08992145854613       -0.90279169868892        2.45254004009144
H           -1.62551025586600       -1.15238582168421        2.19007431443203
H           -3.19391844188953       -0.35679547991811        2.41616052881489
H           -1.72680740361516        0.61463658681730        2.15973193415680
H           -3.49945574379538        0.82984915497322       -1.13613089466104
H           -4.31879186479099        0.80113860002831        0.43284588270819
H           -2.85682036642817        1.78142619401458        0.21285861515713
H           -3.60699123919075       -1.53395105813314       -0.86860819150951
H           -2.60809996231855       -2.37780099183467        0.11769740172645
H           -2.03969513030199       -0.88103588489557       -2.13998895970329
H            2.10397946705425       -0.36563261050062       -3.45874198487831
