42
 energy: -82.974652827648 gnorm: 0.000637130037 xtb: 6.5.1 (579679a)
C           -5.06968352321063        1.10253403064729       -2.95958082809130
O           -4.02363359881097        0.88316723108183       -2.00670610027746
C           -4.38579904134072        0.33188316399969       -0.85351667606479
O           -5.51684116626935        0.00057652842849       -0.58429965457123
C           -3.22613353964991        0.16846288995021        0.06493760940640
C           -3.41935624111880       -0.28016672730289        1.28907757690714
O           -3.64859885951351       -0.66990702333579        2.35373722415588
C           -0.80550041935742       -1.68046514959926        1.48841851870756
C           -1.39350863423601       -2.45201298344546        0.34043691692628
O           -0.40602289817941       -2.21542461182791        2.50094265188496
N           -0.73620350451194       -0.30150659600388        1.38400656513852
C           -0.88621679294101        0.44386529189563        0.19989218392338
C            0.33663298073586        1.20298377198920       -0.28612574111361
C            0.31810754755029        1.32345989805508       -1.81359841490079
C            0.32516400101139        2.59136939797856        0.36453640505909
N            1.55026854256814        0.51969763068301        0.15421911876467
C            1.83434383709303       -0.75078504721142       -0.20206680563807
O            1.08472643259767       -1.48198815301463       -0.82992215740591
C            3.16480631866240       -1.19643974119746        0.27573666207157
N            3.70640304599310       -2.36774407263820        0.15010509777955
N            4.93045714261798       -2.30092608436066        0.74440715253708
C            5.06141390314229       -1.09263203252426        1.19664106484268
C            6.21413103281389       -0.51121351795930        1.91735825686776
O            3.97859277375452       -0.34257518803970        0.93427664589581
N           -1.98408421591914        0.63533849719199       -0.40958960177023
H           -5.84699716302234        1.73381963107317       -2.52340062095918
H           -5.50488549238732        0.14833704580274       -3.26510103812335
H           -4.61082712016223        1.60024260156196       -3.81100608774405
H           -1.43190902744597       -1.86871123198877       -0.57373693940916
H           -2.39660678092102       -2.77794132559440        0.61282045504954
H           -0.78042093610475       -3.33770328482970        0.18352062798757
H           -0.08353564957695        0.09771487315854        2.04485697232540
H            1.20289538684274        1.86101538799849       -2.14817173498018
H            0.30250712508274        0.33554736223580       -2.27140038310740
H           -0.57361672806677        1.86842786096353       -2.11874462106810
H           -0.58414261888459        3.11958759566661        0.08215331104841
H            1.18743713833527        3.16437347204154        0.02918757011146
H            0.36019731186567        2.50063453874708        1.44849768244052
H            2.26015321820799        1.07104828822593        0.60470171714087
H            6.99056862050230       -1.26291659242813        2.03742542064057
H            6.60874243392768        0.33765462152254        1.35944879819930
H            5.89697615832708       -0.15068024759665        2.89562519941792
