20
 energy: -37.579568766352 gnorm: 0.000858579784 xtb: 6.5.1 (579679a)
C            3.90045851088027        0.40585713850700        0.16530799122714
O            2.58891670220526        0.73493578406403       -0.33442678593886
C            1.58408265545698        0.03659494937510        0.12624347076554
O            1.63395271790468       -0.85641842021375        0.92982663165623
C            0.29869307447516        0.49895615480614       -0.48924970839901
N            0.07341195547105        1.44202171864054       -1.32315513946916
N           -1.26158249905902        1.48050043086464       -1.59369684707528
C           -1.85185871325531        0.56198967714904       -0.92655027464640
C           -3.27726629426167        0.20646139529237       -0.89095289227494
O           -0.90504452135419       -0.13549181027440       -0.16950574682601
C           -1.09752188954041       -1.24947636039236        0.76332494124140
H            3.91541224777292        0.52062616492618        1.24998936421399
H            4.58721654157259        1.10205846391126       -0.31034137194025
H            4.14179213322631       -0.62422942507702       -0.10088002313557
H           -3.67310032137407        0.31666511707718        0.11925035327574
H           -3.41831501713488       -0.82948094400377       -1.20045038191700
H           -3.81808443549996        0.86558148385681       -1.56805939865859
H           -2.15501610282632       -1.49225102683046        0.74108245485342
H           -0.78101851097987       -0.90834817622109        1.74707592790868
H           -0.48512923367946       -2.07655331545742        0.41064943513877
