43
 energy: -83.871090781650 gnorm: 0.000347773937 xtb: 6.5.1 (579679a)
C            5.16582438010153        2.97036596072102        0.93642921854779
O            4.02210700335213        2.13369435021463        0.79776119450164
C            3.99101580452046        1.34863387438305       -0.29797432744755
O            4.90758598134404        1.36761969291509       -1.11910506581364
C            2.82056451645476        0.49747774989460       -0.40038701014871
C            2.64143285036759       -0.34727449769068       -1.45843131951449
O            3.50936266377858       -0.44858211667136       -2.47226589054983
C            1.34111981470631       -1.20446099147517       -1.57670947135602
C            1.72294190495548       -2.59480057801416       -2.16106236789331
O            0.34110100997231       -0.60445472941992       -2.14365220642637
N            1.04136016182029       -1.47830022242862       -0.07342110054225
C            0.96034563723893       -0.32563906424362        0.65880035039296
C           -0.28307200391171       -0.14139822383610        1.51470306664740
C           -0.24232795187923        1.20709703867330        2.23834295431343
C           -0.46132571508880       -1.28997276973476        2.51342497637650
N           -1.37398842870404       -0.14975677299670        0.52580120766809
C           -2.66593829490440       -0.01316242500390        0.83920300965700
O           -3.11936327089577        0.13310978436506        1.96734777292588
C           -3.53632247613314       -0.04771287404849       -0.37200802365413
N           -3.15321171017200       -0.12739360004033       -1.60859895215807
N           -4.28279517245830       -0.11668526414197       -2.37401008361876
C           -5.28287763930786       -0.03005244281106       -1.55378001466675
C           -6.72395891054365        0.01643164207422       -1.88782614207814
O           -4.88037383128843        0.01954952372975       -0.27512977220054
N            1.81783560224382        0.62895206047249        0.58339635969368
H            6.07715713636638        2.36763581811062        0.98538527517460
H            5.24152088660076        3.66055311149869        0.09123098805583
H            5.03947830078401        3.52896183172444        1.86253570217735
H            4.27741307953571        0.15182635798657       -2.32888241251678
H            0.84006076008216       -3.23084992571419       -2.15783597541897
H            2.51120865904807       -3.06177914800124       -1.57349734830851
H            2.06119874631729       -2.46352150020206       -3.18761192132078
H            0.21634639823896       -2.06085086923385       -0.00204338904465
H            0.63860444023656        1.24216984176972        2.87788470543886
H           -0.17877776107609        2.01894775582453        1.51399493252723
H           -1.13238042610861        1.34053085614238        2.85044222715472
H           -0.56293600496481       -2.23943779505832        1.99098136614798
H           -1.34969558381904       -1.12982724325272        3.12210284892784
H            0.40909955966210       -1.33797031537194        3.16623594200865
H           -1.10550875811347       -0.27629449011348       -0.45357539578130
H           -6.85184352359085       -0.04570488630217       -2.96538639479851
H           -7.24579885510085       -0.81224620367895       -1.41031390481697
H           -7.16218997966920        0.94457069898335       -1.52207960825805
