38
 energy: -79.622754264125 gnorm: 0.000425262582 xtb: 6.5.1 (579679a)
C           -6.39209994738099       -1.05999581176477        0.26731797717495
O           -5.15604196562178       -0.87450723829452       -0.40701824987509
C           -4.15781870413036       -0.32209267836249        0.32802658228192
O           -4.34561603119454       -0.01048583902525        1.49877880938998
C           -2.90258799748022       -0.14642783847256       -0.38691421116513
N           -1.91488540523182        0.41935024780772        0.39878569753890
C           -0.74925711204659        0.64569475421683       -0.07737887844585
C            0.31070424546593        1.32468673687445        0.76475205978918
C            0.48209285815226        2.76980996758902        0.27144868653705
C           -0.09764888379888        1.28945161087447        2.24060681700325
N            1.57233506769659        0.58760990512484        0.58175399949825
C            2.73199392221397        0.95181700080773        1.15617028140452
O            2.90112773881816        1.93153401926142        1.86634031794545
C            3.85102980102345        0.02481547423331        0.83645708830312
N            5.08116529018396        0.10607329933964        1.24007088112696
N            5.74387380425024       -0.95687330711484        0.70072394105381
C            4.87719326071729       -1.62109643247985        0.00188847719982
C            5.09978700352526       -2.85824938664482       -0.77765010428423
O            3.66012081440456       -1.05395007486948        0.04602962513095
N           -0.42583303970141        0.35391847072160       -1.38943827961656
C           -1.30605635809981       -0.20583032573871       -2.28150897502993
O           -0.94494397463571       -0.43024503579242       -3.43371172156536
C           -2.69110244115931       -0.49797903556319       -1.74605565509372
O           -3.52714645419029       -1.00675819327635       -2.51471783952678
H           -7.07792785515433       -1.52005075264622       -0.44308688905339
H           -6.26570024752306       -1.71391615504163        1.13593049999241
H           -6.79749002407697       -0.10085948189083        0.60492731623165
H            1.19461685591503        3.30688083113916        0.89417385287169
H           -0.47966380650785        3.27934723565108        0.31464848330346
H            0.83856735610945        2.77235889395588       -0.75716021641838
H           -0.16339623715027        0.25715871453513        2.58193111160900
H           -1.07428098859416        1.75881700823726        2.35385382434481
H            0.62965917652415        1.82338302524655        2.84868344050918
H            1.54859920269186       -0.27455740898966        0.06168006344375
H            4.79457270977563       -2.70673092276439       -1.81256612418238
H            4.50238052768786       -3.67118692827575       -0.36491705378399
H            6.15239467593811       -3.12762487897766       -0.74150156108109
H            0.49727916257978        0.55671053037338       -1.73348907455474
