33
 energy: -57.870771885335 gnorm: 0.000596755361 xtb: 6.5.1 (579679a)
C            2.28920301191725        2.48812574519485       -0.39231785133339
O            1.55777353042247        1.25775603215953       -0.26903083330742
C            2.20638544414319        0.16189739588400       -0.65798270832609
O            3.33824591043013        0.19593740553840       -1.10503034335361
C            1.44288557842833       -1.09357860486273       -0.50049033329365
C            1.99878695469935       -2.29434184442354       -0.87308685893285
O            3.21762956744484       -2.42766026792854       -1.39089254461979
C            1.23490384981578       -3.53817359709320       -0.70775219393804
O            1.60654998971655       -4.65833164494971       -1.00046492498735
N           -0.01565386494669       -3.31923791034505       -0.15734585729957
C           -0.50552604417271       -2.09793696015565        0.18922562668361
C           -1.87877772885440       -2.06121118856331        0.76848675892789
C           -1.88549086005398        1.87367097707591        0.54696758796976
C           -1.47367714962219        1.67501853204656       -0.85468046695837
C           -0.89234685126402        1.69208469164514        1.62243389289232
N           -3.10545581422615        2.18450284177002        0.83095823734749
N            0.17485992498754       -1.00997054212597        0.03190155612267
H            3.19068163763998        2.44515136040809        0.22311811065056
H            1.62616504322085        3.27581308220657       -0.04281114154301
H            2.56243445909126        2.65350696590015       -1.43673755096687
H            3.65729913350053       -1.54909146223010       -1.46672036698881
H           -0.59448446079089       -4.13344464969578       -0.02060654891723
H           -1.91337499020767       -2.63531347513178        1.69453737280069
H           -2.59600881812264       -2.49590736142007        0.07273774226672
H           -2.15958465898545       -1.03243603712395        0.97569487929684
H           -2.31021707829128        1.73916590497880       -1.54617890762038
H           -0.72089192117256        2.41994468468197       -1.11745291732383
H           -0.98367217445847        0.70000826833152       -0.93440019179751
H           -1.35180328539310        1.67300761631434        2.60783639752287
H           -0.33489439409952        0.76929054352919        1.43732444075515
H           -0.16855004498188        2.50834465337577        1.57730288009474
H           -3.80193497512295        2.31227582300372        0.11496806586802
H           -3.41145692083326        2.32113402198830        1.78049199237972
