42
 energy: -82.954511126395 gnorm: 0.000514863358 xtb: 6.5.1 (579679a)
C           -3.93424804130616        3.05350968926443        1.02185145244040
O           -3.55378633997855        1.66700845906178        1.11472390480520
C           -2.69470462709303        1.21907385573438        0.23794351926684
O           -2.18387032083539        1.83457644250192       -0.64805593668725
C           -2.39136781373993       -0.32375145213222        0.50015482009151
C           -2.55549195216370       -0.63749639177923        1.99067478374824
N           -1.04805595193359       -0.52403738463702        0.07182097760803
C           -0.81809858388864       -1.00739103015587       -1.10872943311436
C            0.62660688169688       -1.12233466590933       -1.56605829420079
C            0.96787842714977       -2.60357503264646       -1.77986256156832
C            0.79559316142627       -0.32616248879751       -2.86803422938723
N            1.47169784251088       -0.55666052471601       -0.51943644313213
C            2.80770475056489       -0.45078088805626       -0.59559583353330
O            3.50486080357865       -0.83677332700897       -1.52023009398906
C            3.35366576403424        0.22386468407004        0.61442656428927
N            2.66322856882714        0.65824204699187        1.62578568917567
N            3.54938873608589        1.22857331243203        2.49111516476638
C            4.72347472474717        1.10756474955810        1.95036193480086
C            6.01885423703189        1.57150493219892        2.49454324822517
O            4.66596580296550        0.48127769655534        0.76540547144206
N           -1.71131924203757       -1.45527613891632       -2.02507256952952
C           -3.00861298017879       -1.47476243423047       -1.72125842946097
O           -3.94662437342174       -1.89890126439016       -2.40196875080466
C           -3.37902257487528       -0.94870192755837       -0.37490149829230
O           -4.62599699287039       -1.01442475312406       -0.07886112108812
H           -4.53779154698158        3.25980009241578        1.90238787419983
H           -4.51379509945989        3.21040957367430        0.11092791091867
H           -3.04115317348547        3.68040716187990        1.00758797381887
H           -1.92444065460382        0.02770569661110        2.57470735024776
H           -3.59426734569629       -0.51204178783477        2.28546126651743
H           -2.25033081935564       -1.66690820199517        2.16541835503712
H            0.27128715370484       -3.02981853597220       -2.50030136997938
H            1.98344345977042       -2.70365416983019       -2.15911026300847
H            0.88258110950414       -3.14480468378192       -0.83887047873397
H            0.59191457488223        0.72855065732144       -2.68714559616280
H            0.09293081953215       -0.70223728267501       -3.61015649078721
H            1.80972778319854       -0.43560007251437       -3.24772693027395
H            0.99335595133439       -0.21360982166852        0.30603723768376
H            5.85673155688507        2.06322079543524        3.45044333129617
H            6.48714597546529        2.26838958156693        1.79968047545710
H            6.69252133095622        0.72533110254993        2.62890097452690
H           -5.09757998194516       -1.41930726949258       -0.85898295662942
