20
 energy: -37.587253858420 gnorm: 0.000597801600 xtb: 6.5.1 (579679a)
C            3.41356003128276       -0.46993101490804        0.85463397451509
C            2.40206845116074        0.33958379071834        0.15399267645082
N            2.59291994414188        1.42115996693857       -0.55874578113173
N            1.39773762066693        1.81667020182490       -1.00487038807634
C            0.51528853149926        0.96198600014078       -0.55150999884767
C           -0.89949932797785        1.07948708402541       -0.80047501226799
O           -1.44604381002166        1.94331213860742       -1.40211914797988
O           -1.72613558044925        0.05504073701432       -0.19844832902629
C           -3.17190495535802        0.21095056794857       -0.38049224598252
C           -1.24566612003722       -1.29010061944751        0.13018888976327
O            1.10917618753136        0.00468777165235        0.19110887787985
H            3.16424814517724       -0.53590750679144        1.91342134686794
H            3.41571476655559       -1.48263487903257        0.45169096380276
H            4.39655788319912       -0.02177944753724        0.73114501566617
H           -3.37491655670342        1.27960773516574       -0.39708709757097
H           -3.64245573311107       -0.26200147848841        0.47658981331319
H           -3.46193816829255       -0.26334410938977       -1.31671265338813
H           -0.55004936285689       -1.60926791762881       -0.64160152179273
H           -0.76965845869002       -1.24205715896266        1.10698997334373
H           -2.11900448771682       -1.93546086184980        0.15143564446169
