43
 energy: -83.136298464768 gnorm: 0.000281842636 xtb: 6.5.1 (579679a)
C            5.41288379265499        2.63050375066501        1.32482232094736
O            4.35925566829217        1.78068169382046        0.85244049840119
C            4.54903297929374        0.47710414415316        0.97267086399380
O            5.55635612085164       -0.01266150771514        1.45174955733792
C            3.42331460693437       -0.34518288799890        0.46823897321991
N            2.33419983401243        0.32188103517666       -0.03671772500945
C            1.34229217121570       -0.36013422708642       -0.48999084670420
C            0.15134485441986        0.35553057248864       -1.08670826870804
C            0.13964789781731        0.14108165526341       -2.60400846722770
C            0.18730236590214        1.83918766869867       -0.72193038796587
N           -1.06062342679378       -0.26897203441805       -0.49248329180170
C           -2.27600667432236        0.11575415758890       -0.83665579610075
C           -3.53687347017156       -2.06854050351606       -0.85136958098227
O           -2.63606300053892        0.93619352914647       -1.62737826826440
C           -3.39581824682094       -0.77092645753229       -0.06203352262814
N           -2.97816616466879       -0.87334239775173        1.27230148541208
N           -3.77982535644114       -0.24047692546171        2.02525872050039
C           -4.77996776842117        0.26059343161611        1.23609491856557
C           -5.90851654958704        1.06121321014282        1.70017831601784
O           -4.59332801046540       -0.04679731030425        0.00280026249563
N            1.33408980744900       -1.72560706227025       -0.49785009048178
C            2.36171772816074       -2.51585197101571       -0.00303658158174
O            2.28472020369011       -3.72773908301152       -0.02740649111416
C            3.48135575692608       -1.71778709245793        0.51594857031216
O            4.50670645026731       -2.40375811063660        1.00926266875054
H            5.53147846818065        2.50821974618263        2.40368034436424
H            6.34995192993159        2.37633851471837        0.82439629045274
H            5.11670125228885        3.65008540858836        1.08738435211750
H           -0.68760508991316        0.68478395645727       -3.05563670157101
H            1.07551353479016        0.50728485129288       -3.02347326440318
H            0.03681185428713       -0.91817316029441       -2.83083464995988
H            0.15847618210254        1.95683220463978        0.35989238196424
H            1.11082966954512        2.27525530109986       -1.09972342283017
H           -0.66069422944435        2.35732728804234       -1.16459960517053
H           -0.94223208113231       -0.92514836786894        0.26282293645263
H           -3.84615079343400       -1.83521895350756       -1.86817177583440
H           -4.29059202946048       -2.68963324392887       -0.37107039740531
H           -2.58119732424980       -2.58509677833614       -0.86243215778147
H           -5.89016773582901        1.16313528689557        2.78232677563848
H           -6.84149168388071        0.59621195347879        1.37386614802211
H           -5.86905350206351        2.04623772272677        1.22800361130488
H            0.54420229396827       -2.22084177107772       -0.87922307478438
H            5.20618771465476       -1.78954823669783        1.33859537204581
