46
 energy: -87.034263980056 gnorm: 0.000170793498 xtb: 6.5.1 (579679a)
C           -4.91269140818874        1.67403829651616       -3.26084944771140
O           -3.78678255386125        1.10818637152030       -2.61552978918240
C           -3.87102426088019        1.05140259981403       -1.22784499050810
O           -4.92003962331831        1.45842581314665       -0.66427939564949
C           -2.76031277268965        0.51230308303718       -0.58170660717761
C           -2.68270281505670        0.45655735362052        0.87229953441323
O           -3.71671442064377        0.98362558845299        1.60156341106764
C           -1.57026514575626       -0.01226601304565        1.46482240524863
O           -1.32903557810735       -0.04865528168935        2.83581988579976
C           -1.43168388195500        1.18395912332885        3.53384265621723
N           -0.48568560423181       -0.60340071686160        0.70287286010400
C           -0.39594998751352       -2.05565431602487        0.98325341478029
C           -0.58997424085891       -0.30606369023239       -0.70391926943199
C            0.66027194559678       -0.52426818218325       -1.54851289404637
C            0.55029355377820       -1.84493846274204       -2.32793413366059
C            0.81005145859014        0.64793051616624       -2.53217035887043
N            1.82064623147681       -0.54484664083039       -0.65193497278186
C            3.08270466807905       -0.73627468289615       -1.05444309440130
O            3.44146328096802       -0.99655974738350       -2.19677190811987
C            4.07565886305083       -0.60338478277489        0.04808275288989
N            5.36107512396010       -0.76651298112401       -0.03320210289344
N            5.86872485204788       -0.52558274868058        1.21061791841206
C            4.86286457851993       -0.22936478145897        1.97239110391867
C            4.89446857253735        0.12701802360222        3.40799955893747
O            3.69927494463476       -0.26142346865740        1.30077418187982
N           -1.61359838021824        0.18110494464526       -1.28779655812071
H           -5.07116667588924        2.71164500427256       -2.94287887385224
H           -5.82314092704408        1.10154295027067       -3.04658878848762
H           -4.71528456168544        1.65102622834227       -4.33373258946389
H           -4.40039568918164        1.28220398468507        0.93479055778464
H           -2.47558242165723        1.50998960381184        3.62334240205763
H           -0.85503181350107        1.97439449674620        3.03746819011398
H           -1.02426912061309        1.01817407718862        4.53338800201274
H            0.51819792111869       -2.45357352985134        0.54636135564727
H           -1.26177127268171       -2.59501845478108        0.58349819724252
H           -0.35330180400880       -2.18699700281235        2.06387226432369
H            1.36506388733457       -1.94252141187288       -3.04373037632996
H            0.57728728158894       -2.69548841554334       -1.64960044192223
H           -0.39699032893323       -1.85402643598790       -2.86617338283940
H            1.66942793636915        0.49675170837651       -3.18348105289187
H           -0.09226240782202        0.71948093923653       -3.13877159082029
H            0.93777254667110        1.57916830399401       -1.98151725226836
H            1.64514446749538       -0.29723217003163        0.31424663175824
H            5.91842451254510        0.08449324136753        3.77045343789341
H            4.50117799850985        1.13331902335215        3.55052940072768
H            4.27566307141828       -0.56268435802023        3.98108174819671
