42
 energy: -82.982790309710 gnorm: 0.000866635274 xtb: 6.5.1 (579679a)
C           -6.70288164487900        0.26425343269790        0.34515044092691
O           -5.37928423281456        0.46327349526705       -0.16873897962349
C           -4.40111769631522       -0.19100453217382        0.42878040991008
O           -4.54148665069679       -0.94071842341762        1.36113504695653
C           -3.05274965391484        0.08791266448496       -0.20772690237875
C           -2.79385374948071        1.35714549593227       -0.94801735589432
O           -3.41221443495362        2.37599298299712       -0.77725592317819
C           -1.63333558721999        1.25145151498601       -1.93932500920336
O           -1.53604274039974        1.95661710416037       -2.92288325417570
N           -0.73555519812745        0.29401073387856       -1.62603482924333
C           -0.83351537803234       -0.67350563251699       -0.54661444566786
C           -0.44015901928324       -2.04394827196183       -1.11198105541646
C            0.07565925641898       -0.23646787308751        0.65931884325019
C           -0.00907580575280       -1.27330292563766        1.78294752111168
C           -0.33583852478489        1.14803239054431        1.16759264341968
N            1.44341978190730       -0.16287171692822        0.14190208140165
C            2.51319425793879        0.12557180964169        0.92012574156041
O            2.49546980771828        0.26680364024949        2.12844784387836
C            3.74374150577326        0.23678036108404        0.09794543454229
N            3.81527404722328        0.13491224801835       -1.19565443921085
N            5.12422590924440        0.30379489061976       -1.53078287358313
C            5.76881479355183        0.49833847804902       -0.41936107916732
C            7.21895962892419        0.73291209203311       -0.24398352243633
O            4.95115636022858        0.46904209494514        0.64309211505425
N           -2.15586638309004       -0.80048759174252       -0.03003153889819
H           -6.76132651361089        0.63594670280046        1.37014643690820
H           -7.37324553844141        0.82394908932457       -0.30312267482202
H           -6.95183656339456       -0.79865640021905        0.32857938470066
H            0.01540973231683        0.16418921429228       -2.28477830139758
H           -1.01593722311061       -2.23267348611495       -2.01585902727732
H            0.61973765845605       -2.06991044768863       -1.35149793412356
H           -0.66663464990526       -2.82016764836149       -0.38500368329531
H            0.49111853094071       -0.89615629066924        2.67329913332843
H           -1.05387014979257       -1.46795470976027        2.02011773050436
H            0.47083143532878       -2.20307980360605        1.48471616600806
H            0.32582574472560        1.44019859999337        1.98127914194820
H           -1.35734879801027        1.12619331873917        1.54284731156878
H           -0.25777647980800        1.88542776471693        0.37044898681992
H            1.58647841538623       -0.14439762071187       -0.85554995962387
H            7.39225455835510        1.75388544242765        0.09819453800515
H            7.61702883174346        0.05226315048513        0.50822952475157
H            7.73235335963921        0.57779066222641       -1.19009468794025
