42
 energy: -82.957526456294 gnorm: 0.000706003580 xtb: 6.5.1 (579679a)
C           -3.20180514302341        0.72408372955848        2.61746686628880
O           -2.68596605756450        0.07603213821731        1.43956004807275
C           -3.53758102472105       -0.22681198049518        0.49815411245722
O           -4.71944434200997       -0.04857054033029        0.50769779762018
C           -2.81597193144198       -0.89461739477506       -0.75134261666790
C           -3.86578168233630       -1.09538270394586       -1.84616205558590
N           -1.82723879597505        0.05780388409989       -1.13764523369840
C           -0.59335818177290       -0.12367991446171       -0.77655156525376
C            0.38241905249205        0.96180014328384       -1.20888536657671
C            0.62119821949107        0.81082113159829       -2.71951891694038
C           -0.19888237128490        2.34182757120198       -0.87867157896161
N            1.63081323683696        0.75674997363342       -0.48118907262775
C            2.71494049027397        1.53487965685444       -0.61505581673540
O            2.81131883229876        2.50271596689768       -1.35660696397995
C            3.83952863345767        1.10754629963559        0.26100464039194
N            5.02499161873752        1.62745452039738        0.33921166701678
N            5.70655800981681        0.91516301070993        1.28198218266538
C            4.89404601470908        0.00565730532157        1.72158233506909
C            5.15523506116341       -1.01718748526864        2.75778063545734
O            3.69672115080710        0.07139113971694        1.11650382424406
N           -0.06032872753302       -1.17399911989364       -0.11282970768626
C           -0.82878155504634       -2.21853087516438        0.20542820613231
O           -0.48895536282825       -3.27190095600286        0.74854654901391
C           -2.26362863305981       -2.12049358159689       -0.18606888205828
O           -2.98697780399542       -3.15166894807158        0.06631723817273
H           -3.48887283742968        1.74786023856559        2.37337969685643
H           -2.39452217050869        0.71630962826331        3.34584260644642
H           -4.06693589706403        0.17496589445612        2.99171468002159
H           -3.39179862998994       -1.53441494892467       -2.72070927983618
H           -4.65219752299942       -1.75458990176223       -1.48558610015767
H           -4.29031827673030       -0.12978839355865       -2.11104135448505
H            1.29449078434221        1.58938631982577       -3.07462631676497
H           -0.33101905229964        0.89499250938394       -3.24057816561147
H            1.05712043283504       -0.16467891085227       -2.93068688210769
H           -1.18127672025919        2.43354298740321       -1.33862745603835
H            0.45030914434708        3.12860637630341       -1.25894491862917
H           -0.30159972588859        2.45118587879868        0.19993753491137
H            1.65957835118942       -0.05028023683825        0.13090324636864
H            4.46630257661326       -0.88549860036465        3.59178703680204
H            6.17855263500266       -0.92452551374066        3.11328767670337
H            4.99871165296738       -2.01398044590192        2.34625080485498
H           -2.40959545161966       -3.83017385215974        0.50852886484243
