43
 energy: -83.171718596594 gnorm: 0.000270711187 xtb: 6.5.1 (579679a)
C           -6.94016581051851       -1.54816321637073       -0.58265387060914
O           -5.82942103175570       -0.82860172873972       -0.03503451792255
C           -4.65456029452102       -1.00766532115429       -0.62827539709232
O           -4.49037281053908       -1.73501123264446       -1.58045388797359
C           -3.54971359890752       -0.21482834934846       -0.00622134010633
N           -2.34527153805494       -0.35605025028686       -0.65812434831817
C           -1.30887272891263        0.27885069129903       -0.24507413455545
C           -0.00505465856266        0.16582066433420       -1.00632230116328
C           -0.05474148441926       -1.02445757045428       -1.96554107218267
C            0.24527336664835        1.48921710352871       -1.74131692711428
N            1.05962119037243       -0.06216682625436       -0.00307367696121
C            2.34966907357447       -0.12057201705254       -0.23965575336433
O            2.78323819958144        0.03496478865232       -1.44913381677756
C            4.17804320637082        0.00788178126990       -1.80434937443266
C            3.17847001266177       -0.36177710051282        0.91609409910954
N            2.71511993259084       -0.55660754609407        2.12272949789000
N            3.77543523465024       -0.73961160703482        2.92442257336887
C            4.84313883863321       -0.64811494164857        2.17438572399835
C            6.25245018240496       -0.77186474230581        2.58984132386829
O            4.52273540186579       -0.41291613854229        0.89644453897686
N           -1.33974115672251        1.11596563920019        0.83757611904957
C           -2.47938272551972        1.32128723799136        1.58365554626104
O           -2.50471395072413        2.05171987999196        2.55897524535651
C           -3.65078412271363        0.59111921470826        1.09495860092414
O           -4.77291989740444        0.78149575800090        1.78992753580103
H           -6.75052852144544       -2.62301819382875       -0.53461732148158
H           -7.09894337642984       -1.25467504241578       -1.62295501634503
H           -7.80681186884214       -1.28766540320411        0.02160746120619
H            0.87468175823980       -1.09951361660482       -2.52353890455604
H           -0.21665536610345       -1.94439392103816       -1.40613288346865
H           -0.88155989601724       -0.88209395609495       -2.66012339606905
H            1.10320206530410        1.40717988250380       -2.40303016472885
H           -0.63476000096503        1.73363361436461       -2.33507654703789
H            0.42350622827354        2.28656206308414       -1.02285837992688
H            0.78238304464406       -0.21841129640528        0.95921677409823
H            4.70627409662005        0.80956219333229       -1.28866322513809
H            4.20291706155844        0.16164571934172       -2.88159789048808
H            4.60899209150415       -0.95851557354273       -1.54339411135154
H            6.71516325355554       -1.61683097084362        2.07869919651421
H            6.80042745609888        0.12745802334193        2.30797436990281
H            6.30812260961963       -0.91780529311660        3.66629473440846
H           -0.51841598474834        1.62616695012460        1.11713505115715
H           -4.59547248094463        1.39416465046268        2.52727886727448
