13
 energy: -19.066501988554 gnorm: 0.000935890475 xtb: 6.5.1 (579679a)
C            1.69808431859364       -0.19177745231476        0.11291649656246
O            0.54817251720440        0.67381557183578        0.34252143844439
B           -0.86108527093445        0.40344195777936       -0.05754306496956
C           -1.14323806606874       -0.90494696482503       -0.83152326698784
O           -1.73664652786337        1.32252134601138        0.29262563284734
H            1.74524369486100       -0.41179824574478       -0.95221677547045
H            2.58377681947528        0.35043395812855        0.43161549035907
H            1.56912461463406       -1.10356356670166        0.69504731859309
H            0.74911457275826        1.45551289253375        0.87296800699205
H           -2.18616256438453       -0.96015159543406       -1.14099926747207
H           -0.51278540947943       -0.98355791408355       -1.71677889213056
H           -0.92288657053165       -1.77349475619076       -0.20978031853043
H           -1.53071312826469        2.12356476900597        0.77076220176241
