42
 energy: -83.003424424693 gnorm: 0.000336458178 xtb: 6.5.1 (579679a)
C           -5.17052354271727        3.90563134757042        0.91702316598323
O           -4.46225670523983        2.66925436065444        0.99003643217575
C           -3.40852533773805        2.54344338764946        0.17451510101091
O           -3.07047115254649        3.42747182523372       -0.58953687508640
C           -2.70359806839798        1.24799685777140        0.29033168806377
N           -1.63167599177705        1.15388561207199       -0.53464148686646
C           -0.89356457006777        0.09438070522645       -0.56211987013049
C            0.27336063966766       -0.03319557838121       -1.52066845069758
C            0.01872690726105       -1.16853970457542       -2.52208318398961
C            0.46199687798830        1.29399635699492       -2.25590784907236
N            1.52387121023738       -0.29571765161853       -0.78151113834007
C            1.84518323588263       -1.43113559801502       -0.14113495054802
O            1.09063152189240       -2.38186652632128        0.05787462636514
C            3.23596060771052       -1.43942220960618        0.36102822978851
N            3.83064666621873       -2.37107720794388        1.04041297857048
N            5.09858690932187       -1.93745694131912        1.27580146583475
C            5.20306595835550       -0.76644272748948        0.72632239529940
C            6.38375760505171        0.12318057982826        0.70188416075393
O            4.05862931078068       -0.39257867069969        0.13136922718763
N           -1.18665498202096       -0.97636390245316        0.24769529570049
C           -2.20267590259960       -0.97225567465973        1.09437666871451
O           -2.43043691574947       -2.00632655113841        1.87897144787085
C           -1.59154015263702       -3.16185283248513        1.84717102187841
C           -3.10089904885045        0.19920322464377        1.17989830741972
O           -4.05957164574832        0.20001649747457        1.95920687810565
H           -5.57015974949864        4.05511163389835       -0.08949726457135
H           -4.50649398649469        4.73803663107279        1.16485290596919
H           -5.98361670339490        3.84653278085014        1.63866275414368
H           -0.86933547081168       -0.93886157229630       -3.10896881860632
H           -0.13409796962857       -2.11555978743118       -2.00888633670548
H            0.87286569857345       -1.26308109702420       -3.18994698557576
H            0.65076095947297        2.09551393729818       -1.54317569001290
H            1.29920743707617        1.22134409320331       -2.94650879510827
H           -0.44166421197819        1.53198220717669       -2.81536991962306
H            2.25599311266620        0.38781514708992       -0.89922184656511
H            7.19907413045648       -0.33314773114872        1.25821865926374
H            6.69563622203511        0.29700638621202       -0.32799425947851
H            6.13118523142752        1.08728290068959        1.14300344148587
H           -0.53507249650483       -1.76654424624463        0.20807870192743
H           -1.62794096389818       -3.63205162479050        0.86198338258372
H           -0.55993102169347       -2.89501130192355        2.08811001938066
H           -1.98843265207979       -3.84060033503897        2.60034676550445
