42
 energy: -83.011699320896 gnorm: 0.000659124296 xtb: 6.5.1 (579679a)
C            4.96924164686472       -2.25674307380531        0.03631195187655
O            3.83974397007301       -1.38094113836593        0.14751616817861
C            4.05629702394714       -0.10097620782642       -0.10351856684051
O            5.12424315883310        0.35898558828856       -0.42292235887992
C            2.78060223933739        0.71631336577899        0.02552570937356
N            1.75230149978232        0.08536545665539        0.76128078055014
C            0.57168802809918        0.55803685045016        0.69510085802826
C           -0.52789871606243       -0.00431410936738        1.57170414103266
C           -0.81188129146017        0.99092718373851        2.70021957595337
C           -0.12421260123674       -1.37239072212647        2.12692224804539
N           -1.74468492515756       -0.13011145634521        0.76686314078659
C           -1.73163040064626       -0.79039266190304       -0.41447440091719
O           -0.71928943691938       -1.18978380861016       -0.96506794616215
C           -3.08015779357487       -0.94693277907428       -1.00628348299983
N           -3.39256598018022       -1.49436855568910       -2.13961982325508
N           -4.74660568018033       -1.40977602760766       -2.25686052657678
C           -5.17871033426030       -0.81624172790684       -1.18770391841495
C           -6.57554329668573       -0.48547555560690       -0.83397355895797
O           -4.17446312311962       -0.49663011474499       -0.35519622239073
N            0.19770939948603        1.58800819318548       -0.14250796495287
C            0.97843351082605        2.03441697554414       -1.18006363986270
O            0.50594983802950        2.60987059732566       -2.13733013869215
C            2.44133164578094        1.74012291954210       -1.02226930624681
C            3.29884148166740        2.01416774583631       -2.23393204069454
O            2.95851316166524        2.08529995031901        0.23884032058532
H            5.73988042527271       -1.96230609649951        0.75147606336572
H            4.60771051604339       -3.25814216512156        0.25766954307821
H            5.37633855303111       -2.21155371366529       -0.97590953933404
H           -1.61035256767962        0.61067531344286        3.33385823456997
H           -1.11401122952006        1.95193392798849        2.28773043582049
H            0.08358839656581        1.12837794733357        3.30437116261898
H            0.09579578477076       -2.05640051522660        1.30816606043553
H            0.76490776388197       -1.26540290489784        2.74634682942908
H           -0.93512072969426       -1.77797160211676        2.72761740467701
H           -2.62493444672445        0.07893447397854        1.20510259832231
H           -6.68140635049804        0.59214060397710       -0.71061960104247
H           -7.24501318724760       -0.83183922615186       -1.61759193282533
H           -6.84004583464069       -0.95872767375079        0.11119463833096
H           -0.78803245990842        1.79349482911208       -0.20986855133481
H            3.11904575798568        1.25736050928028       -2.99618012224669
H            3.03328262966957        2.98926987579430       -2.64237348004998
H            4.35111495377094        2.01372252884129       -1.96031174239359
