47
 energy: -80.209382122754 gnorm: 0.000231171979 xtb: 6.5.1 (579679a)
C           -3.30320920367868       -1.02829972847734       -1.06749863755890
N           -2.36920286102712        0.05049377024059       -0.76997743802605
C           -1.68897232805359        0.58637598248335       -1.95262257574744
O           -2.01772349116991        0.12000522148990       -3.08806022058775
C           -0.76336259529838        1.54105684274627       -1.69481721384508
O           -0.04530652526889        2.13063385627883       -2.78405454944919
C           -0.40616171295954        2.07034322224328       -0.34358818025952
C           -0.74755844005954        3.57204789694690       -0.19059875020422
C            1.10930659353300        1.91478556719915       -0.03454953429856
O            1.68906953819995        2.56852914716184        0.82660079661690
N            1.73075426277732        0.95707931249999       -0.75488523929057
C            3.16211619699906        0.74824042909736       -0.68598262026098
C            3.52130356997151       -0.68245036944495       -0.35174613464729
C            4.80867374916980       -1.13995356933022       -0.62970800191996
C            5.17899537232827       -2.44312577445407       -0.33070089587016
C            4.23698912234238       -3.27441158518827        0.24783131662112
F            4.58459829350680       -4.54172253962323        0.53594487487126
C            2.95237918889149       -2.85455684602357        0.53941771897609
C            2.60121615982852       -1.54621111609513        0.23633444455963
N           -1.09311960050823        1.33908401070951        0.71866331184833
C           -1.98059418924688        0.43828189853411        0.47324227651655
C           -2.57963236685959       -0.20469927001949        1.73576140563704
C           -2.13493316844757        0.58940107504988        2.97734552485091
C           -2.07936889795488       -1.64894301650984        1.87279521634805
N           -4.04445564685552       -0.20687624665890        1.67637839747359
H           -3.80960315738223       -0.79909957510329       -2.00918508046472
H           -2.77316248246524       -1.97927867339556       -1.18828329133236
H           -4.05189473378067       -1.12548973637723       -0.28466686049851
H           -0.42776652595214        1.74147588673315       -3.58551617802510
H           -1.82069555692743        3.71470618396189       -0.30958959014673
H           -0.44938337748792        3.92486254175978        0.79688589357645
H           -0.22409070419722        4.14929518847100       -0.95273836790683
H            1.24003838625263        0.55069776837150       -1.54117287774102
H            3.62182372676211        1.02668246882043       -1.64189629055589
H            3.56198341172448        1.41744927936199        0.08722358825795
H            5.53105239524528       -0.47422859073521       -1.08775146370031
H            6.17455203771090       -2.80815855406771       -0.54474112250574
H            2.24664048886818       -3.53787287781329        0.99338474840785
H            1.59708930263624       -1.19704744321063        0.45555910773862
H           -2.44472121923772        1.63035039973184        2.88857116942411
H           -1.05065048169902        0.55737381515445        3.08403732811309
H           -2.59210381057277        0.16037045193516        3.86787693482931
H           -2.39891443984298       -2.06396473341913        2.82849088302681
H           -2.47106038932537       -2.28161418492995        1.07883753028129
H           -0.98990626933846       -1.66769333351754        1.83151533790496
H           -4.40267468719790       -0.73425448877566        2.45957022219184
H           -4.38835093394748        0.74033503618729        1.76975708674675
