42
 energy: -83.615895683070 gnorm: 0.000661723675 xtb: 6.5.1 (579679a)
C            6.59324052760477        1.19156029832241       -1.39961211948875
O            5.59647649587971        1.12617261663806       -0.39291171568418
C            4.39675843671159        0.61095181251828       -0.78266529808361
O            4.23218774139169        0.24546317089945       -1.94310080346160
C            3.39440382918620        0.53820183094171        0.26485137490909
N            2.19092174674697        0.01391147835971       -0.18253204813898
C            1.20316276841504       -0.12211306183283        0.62354550169381
C           -0.10909465149803       -0.73425059942245        0.17309547601523
C           -0.36778355331080       -0.38257625995506       -1.29947597374404
C           -0.00488084167320       -2.25641866027734        0.34751850099564
N           -1.17033776137383       -0.20760686893691        1.05369961588893
C           -2.48592908646317       -0.76287846722567        0.81389261793792
O           -2.83350397880664       -1.79952396743879        1.73289282946717
C           -3.55268690407179       -2.86862770607891        1.15653043484498
C           -3.46658037421799       -0.00946314791874        0.22229640401088
N           -4.79267100429757       -0.27233772328808        0.11754423099215
N           -5.31116706569106        0.71411633371575       -0.70175614248093
C           -4.34891042916686        1.49005889887145       -1.05112497835884
C           -4.42679076230214        2.69587658307635       -1.92023426967904
O           -3.13293954214246        1.11685733524958       -0.52340707466529
N            1.29992318559410        0.22219837729547        1.95438057203801
C            2.41749804887063        0.75283446406383        2.52960599200553
O            2.41908053968180        1.03894096388625        3.72920189801746
C            3.60148429056368        0.94485661743799        1.60845311204096
O            4.65061780822766        1.42983357662474        2.08172919476589
H            6.25343539388080        1.79518035272465       -2.24781188556205
H            6.84694707024214        0.18997340800455       -1.76268730588336
H            7.47316622414396        1.65205447816972       -0.95171676375217
H           -1.27237891437654       -0.88096556576598       -1.64673979776214
H           -0.49699975413431        0.69391193053630       -1.40893638308392
H            0.47628081168944       -0.70138049573957       -1.91116999489266
H            0.87842070734516       -2.63144921150325       -0.16878316808839
H            0.06707044484888       -2.50638982273906        1.40616627054893
H           -0.88584714779976       -2.74282400972527       -0.06973510987498
H           -1.22312232395186        0.79834072658306        0.88890383099788
H           -3.68268347592107       -3.63286746442587        1.92761392516254
H           -3.01458095682728       -3.31195248734361        0.30515486688292
H           -4.54438497688894       -2.54349973450608        0.80520594713225
H           -4.01367903453338        3.56721942494300       -1.40937543298160
H           -5.46760112094026        2.89113938996493       -2.17006304172437
H           -3.86383256921972        2.55003628120286       -2.84387148207139
H            0.47731015855612        0.09743490405903        2.53197819308877
