47
 energy: -80.190590377389 gnorm: 0.000675796712 xtb: 6.5.1 (579679a)
C            4.13147341342992       -1.85487387788075       -1.07909502566056
C            4.83013622092426       -0.46458811985175       -1.14627088745007
C            6.22565046280438       -0.55510129436052       -0.56711798715840
C            6.49997778815226       -0.01208079035439        0.64154597092995
F            7.75551099575743       -0.20487606832493        1.15369177815947
C            5.62945984005130        0.78742546499753        1.39606116473422
C            4.39528836798963        1.09607741689576        0.79279080163357
C            4.01198938644756        0.58942265714433       -0.41826275884821
C            2.71187895774426        1.00374056887391       -1.04738317548029
N            1.56517077456672        0.33122449796344       -0.39564472100792
C            0.31357861149988        0.75219259647405       -0.66694493251567
O            0.07827877778427        1.52712516016099       -1.59863651423950
C           -0.78180744593004        0.21621668246048        0.19282597508983
N           -2.04046175085952        0.53584515889626       -0.24856755806592
C           -3.11028260636443        0.18585354884521        0.38646799628539
C           -4.43764925329035        0.56988306377313       -0.26010876816282
C           -4.16805649702618        1.49337348139540       -1.45990733558439
C           -5.16389334384591       -0.69011979074978       -0.75185696867072
N           -5.28798699523745        1.26288077130637        0.70924585736280
N           -3.05170295584731       -0.53267759857180        1.56030516148363
C           -4.21033266824345       -0.94562163421508        2.34929529230998
C           -1.82711010211660       -0.94178253139526        2.07774867150538
O           -1.75308850259011       -1.61138672729593        3.11714855002398
C           -0.66395350203708       -0.53142722014606        1.34242706554769
O            0.52027836963843       -0.93082006776528        1.87991614031075
H            4.05251798492110       -2.18188016043838       -0.04192513648777
H            3.13036330805667       -1.80019930435152       -1.50838352851630
H            4.71187307049730       -2.59196956054059       -1.63533081192191
H            4.89380608046053       -0.20693721228500       -2.22084381819951
H            6.96700112894417       -1.12905991432327       -1.10937593008869
H            5.92860770518903        1.20547145101489        2.34629396705910
H            3.73832724222020        1.80162507371327        1.29958386973789
H            2.55275135700952        2.08845389677415       -0.95811297961819
H            2.68841363832847        0.75725051283670       -2.11724249652913
H            1.76588454481721       -0.17888072897252        0.45094420258064
H           -3.57393695536202        0.97584408587136       -2.21283857475203
H           -3.62762254242840        2.38261509668586       -1.13732289177140
H           -5.11609998861013        1.79672341198448       -1.90047010273793
H           -4.51216721851360       -1.26622671022201       -1.40848649390964
H           -5.46915594092859       -1.31940992520351        0.08124323726907
H           -6.05553587319268       -0.40299278524667       -1.30760948667383
H           -6.19967505818460        1.40901866011826        0.30131192684086
H           -4.89736363992423        2.17199425635981        0.91924459203759
H           -5.04918098295531       -0.28132562351700        2.16192489011339
H           -4.47952853359961       -1.97333086265644        2.10061817822962
H           -3.93725800546781       -0.89981711377411        3.40448884942456
H            0.31563433531984       -1.43287089210287        2.69031074538347
