47
 energy: -80.212056906401 gnorm: 0.000365394473 xtb: 6.5.1 (579679a)
C           -2.62147678173194        0.81281797267284        1.92518027747808
N           -1.95472987231562        0.78330397573332        0.63020299115368
C           -0.99476455420244        1.86592948966834        0.40074503103673
O           -0.92445679144354        2.80114235777245        1.25845092111585
C           -0.30087734888043        1.77524575737342       -0.75993872355424
O            0.66320136400418        2.77871208899158       -1.07878372655391
C           -0.36512826144278        0.62675169854460       -1.71641364001978
C           -0.47841553155071        1.09541803782724       -3.18518446377310
C            0.92299952242462       -0.22820273540056       -1.57301930507040
O            0.92812666078989       -1.40222451767832       -1.21544036748868
N            2.06912051415129        0.43164908346960       -1.87567014573055
C            3.36434684835647       -0.20129663232017       -1.66172150802043
C            3.79344500947730       -0.10001806111103       -0.21350349482565
C            4.55891223627971        0.97939004137174        0.22117726353939
C            4.94039546261179        1.08721243599897        1.55185427554087
C            4.53683245892010        0.09843485049921        2.42995304390073
F            4.90417479743307        0.19319154863819        3.72163633734941
C            3.77870258220936       -0.98854015832423        2.03380099337415
C            3.40761013538542       -1.07935194057455        0.70010555992207
N           -1.50564979988876       -0.23047086373520       -1.43756772430584
C           -2.17691875946868       -0.14305756238652       -0.34312576520513
C           -3.28623730804148       -1.19862424528996       -0.20237985933862
C           -3.46512901467366       -1.93489665800891       -1.54247194246944
C           -2.90806565120730       -2.22894580977250        0.87051396611633
N           -4.55838811925461       -0.56710096347993        0.16342005061092
H           -3.65986440354633        0.49607742225474        1.84420188628348
H           -2.59933993333000        1.83879819048294        2.30306774073891
H           -2.10230479116933        0.17119708251608        2.64558958460607
H            0.53619911768820        3.48796270994041       -0.43029150564127
H           -1.40889937453008        1.64779327001987       -3.31357124464909
H           -0.48584464801635        0.23464010868415       -3.85357897918046
H            0.35511657439021        1.74489630109734       -3.44607587235662
H            2.06610277137407        1.44038707018770       -1.93584195344082
H            3.28191546574457       -1.25259379033182       -1.95670095190062
H            4.09162703136865        0.29289025323396       -2.31040263226093
H            4.87130294921999        1.74045388279211       -0.48436331406015
H            5.54172995315323        1.91629934577427        1.90020049062094
H            3.49331233632470       -1.74535868805687        2.75298576147960
H            2.81468705803291       -1.92291438640933        0.36331112918115
H           -2.55518656447152       -2.47343073791342       -1.80758306904423
H           -4.28773567700542       -2.64440475138232       -1.46213929316462
H           -3.69023184161888       -1.22356167272741       -2.33623211263015
H           -1.92613225343644       -2.64932515737344        0.65120046429910
H           -2.88605984322260       -1.78260117502805        1.86271121329493
H           -3.63851143809953       -3.03771599737684        0.87948738780121
H           -4.89705264100849       -0.01645637203144       -0.61516401730922
H           -5.24245864578864       -1.28950309883897        0.33629524253784
