20
 energy: -37.645690209518 gnorm: 0.000459382284 xtb: 6.5.1 (579679a)
C            4.09415146658963        0.06807071366059        0.52662453764888
O            2.68142890449722        0.23717338411673        0.30051138969684
C            1.91957685380786       -0.81463813455503        0.46388160072183
O            2.26672368458272       -1.91679602364730        0.78450482904512
C            0.47358750248663       -0.48349521709964        0.19233033377968
N           -0.53696443399203       -1.29492850173545        0.26857885472521
N           -1.60336019716994       -0.55044860824681       -0.06632379641206
C           -2.92810891656295       -1.13779391065846       -0.07778811479338
C           -1.22545748493027        0.68472924116223       -0.33406816443979
C           -2.04129422869484        1.83405836716143       -0.75386674750449
O            0.07928307965301        0.74866526790919       -0.17795948705665
H            4.47829179011250       -0.71188474440082       -0.13276346571023
H            4.55109024681418        1.02837922773275        0.30071686081687
H            4.26472855300293       -0.20882485698335        1.56806478352264
H           -3.45920520518813       -0.82596316195151        0.82097213956092
H           -2.81555647812864       -2.21895722926360       -0.09466489139569
H           -3.45781941529367       -0.78997705564129       -0.96141563634019
H           -2.96285228531335        1.87588713498940       -0.17444274567798
H           -1.46930656390272        2.75175993435438       -0.62703471059213
H           -2.30893887237003        1.72498517309647       -1.80763756959514
