42
 energy: -83.020241153530 gnorm: 0.000579324401 xtb: 6.5.1 (579679a)
C           -6.09447627859158       -1.07812817491217       -0.71906220083397
O           -4.86620011994561       -0.76665858460134       -0.05529680459746
C           -3.82680557072881       -0.48308652086158       -0.83628645003085
O           -3.89181231421987       -0.48507868555788       -2.04556231591359
C           -2.57163274138848       -0.14931330468671       -0.09461952815166
N           -1.55118146471170        0.19673388214971       -0.94191421435753
C           -0.40331340690868        0.52564743294026       -0.46146440382826
C            0.70945980365017        0.96281062844275       -1.38827108365844
C            0.75601840118758        2.49916628586010       -1.36722439083385
C            0.45544089188534        0.43127519152796       -2.80246388484327
N            1.96762656763924        0.41606321681895       -0.86772934999080
C            3.16734467784551        0.66869692941889       -1.43711282001511
O            3.36243608858711        1.42573192482148       -2.37215369083944
C            4.27354265765772       -0.07495271567513       -0.78394613208000
N            5.53104308795473       -0.05922829676487       -1.09893244849510
N            6.16656917620378       -0.88753072187269       -0.22305271276830
C            5.25797329651114       -1.35815163259028        0.57287869703998
C            5.43845698765127       -2.29609670941894        1.70183855017117
O            4.03673998262883       -0.88526216383484        0.27104436891204
N           -0.17667435174442        0.56521588101960        0.88220118269928
C           -1.11289385845282        0.23304188205112        1.84013010204562
O           -0.81956822109129        0.30099728851273        3.02466239945874
C           -2.40589283473124       -0.16484784426031        1.27355759209203
O           -3.42849585088722       -0.52976709759190        2.05751520711868
C           -3.32634947874811       -0.62955864351515        3.47828596636273
H           -5.96826688095457       -1.96363001234285       -1.34660198387868
H           -6.40959377568954       -0.23636583081069       -1.34045215940042
H           -6.82966322253879       -1.26873127738210        0.05988079946002
H            1.49443612512316        2.86496018829112       -2.07788366911250
H           -0.22321729937490        2.89222316433871       -1.63706638158191
H            1.01676035413954        2.84709351919692       -0.36954852387366
H           -0.52231506450726        0.76800129889551       -3.14414742181457
H            1.22110624658936        0.79970817946228       -3.48252736980416
H            0.47273274435267       -0.65751298815761       -2.79648170705802
H            1.91903827295585       -0.31408415605287       -0.17735011073765
H            4.83085278604689       -3.18720772924957        1.54608008851902
H            6.48627991128501       -2.57606480359142        1.78187382171138
H            5.11317969989678       -1.82563816434569        2.62975511560922
H            0.72276595843602        0.85129789670948        1.23791860331011
H           -3.12245528002357        0.34476699780574        3.92770727392728
H           -2.55007109058000       -1.34096540048420        3.76794217543262
H           -4.29892461240169       -0.99171332970438        3.81387781462655
