42
 energy: -82.956078296695 gnorm: 0.000383973585 xtb: 6.5.1 (579679a)
C            6.68246168016467       -2.28830162945525        0.63219808422950
C            5.30431433217188       -1.80110022443095        0.86030395861139
N            4.45165630557708       -2.22053015321922        1.74678716735079
N            3.32432072339328       -1.47441340683884        1.58393690357883
C            3.56005505305050       -0.64743607203289        0.60942870428194
C            2.60962576164023        0.34897326734739        0.05618082348125
O            2.86694922495871        1.05211076498038       -0.90864417941690
N            1.45143211883962        0.33969545153960        0.74262121177236
C            0.29839087407467        1.22359030351798        0.51826427123882
C           -0.60436524036014        1.08052436685520        1.74423174014919
C            0.75109543637999        2.68215029403329        0.37487874955792
C           -0.46026889020256        0.77616934995817       -0.72226902310829
N           -1.68828245273527        0.42828467299356       -0.61686431571368
C           -2.40334689323197        0.04648334393150       -1.74556043121837
C           -3.73656385817608       -0.28921292680754       -1.61871143051070
O           -4.65722316362268       -0.63184890888873       -2.27648276469687
O           -4.18755145767100       -0.10378514274892        0.01316564802714
C           -5.60018486114945        0.14029333352907        0.09938860847248
C           -3.74314701576409       -1.21194225590924        0.81323320648063
C           -1.81239432751013        0.00152024411268       -3.06149972430758
O           -2.39381534499990       -0.33784678924395       -4.08505861899754
C           -0.35113978910729        0.42149628669895       -3.12014491310141
O            0.29921290981018        0.43876907032590       -4.14985399999802
N            0.20283438549282        0.79377821445231       -1.92537537665331
O            4.79882901844320       -0.81037039994670        0.11171867276323
H            6.84092409487042       -2.47546841479747       -0.42920550885044
H            6.84521770108345       -3.20274306538254        1.19759454664165
H            7.40115346399953       -1.53380005494259        0.95386020560758
H            1.38107042541212       -0.29790798414358        1.52147038665245
H           -0.07456066253440        1.40637380303553        2.63713205315951
H           -0.90995368178654        0.04301366554343        1.86827331771016
H           -1.49734988060673        1.68957855879533        1.61605371736004
H            1.34990917981836        2.82812665450557       -0.52137269935383
H            1.34106668879394        2.96627828417629        1.24436809325215
H           -0.12793980111181        3.32239325653180        0.31863386974057
H           -5.80216410791306        1.05169462263438       -0.46079162834840
H           -6.15904861137877       -0.69990342160257       -0.31894217638445
H           -5.85025825646872        0.27772401652693        1.14955294819966
H           -2.66015717183033       -1.25743166801284        0.71236062823890
H           -4.20860942218635       -2.14108232105102        0.47731274955316
H           -4.01287484716980       -1.00580432041109        1.84838457760679
H            1.18068135955195        1.07190633384534       -1.93794905305450
