33
 energy: -57.838630094977 gnorm: 0.000888267123 xtb: 6.5.1 (579679a)
C            3.68518463163368        2.19598018727733       -1.20124973413897
O            2.47947175919459        1.61351507720828       -0.67635446845081
C            2.51297093262981        0.33245016024776       -0.38807926094930
O            3.46963859755883       -0.38950589950772       -0.53089703648881
C            1.19374750777403       -0.18134902492116        0.14461302008195
C            1.20908034956254       -1.48240205475647        0.92294602715432
O            2.36031610885752       -1.64282431036642        1.69252344562840
C           -0.00305933837690       -1.54365751550162        1.85559921260026
C            1.06152032035638       -2.62649105414349       -0.10872026709414
O           -0.03177152424172       -2.11898436137654        2.91136761500766
N           -1.12452027419578       -0.92042748006953        1.35196789242452
C           -1.11543024050124       -0.03270288764779        0.26557760512702
C           -2.31063754751557        0.76720380948980       -0.09803648498993
C           -3.58936414201956        0.66162397992851        0.69485992274683
C           -2.10849871022745        2.06832650693607       -0.83750832128958
N           -1.98421308602792       -0.43959082184391       -0.90027234251953
N            0.13157765376619        0.43369634510628       -0.19519920561205
H            4.46513692662107        2.17162676735945       -0.43758209443744
H            3.43850909321505        3.22144208257304       -1.46645523099409
H            4.01249893985095        1.63609046849419       -2.07901984049986
H            3.14912366031466       -1.65849435833328        1.12597702343121
H            0.12757091655051       -2.52226676524655       -0.65375377010507
H            1.07490023738665       -3.57770927730222        0.42067664943359
H            1.89598662439613       -2.58768075851977       -0.80634592155071
H           -1.93021360199646       -0.91825604159318        1.95797677367960
H           -3.54289908974002        1.34423899569254        1.54295494986574
H           -4.43141476246717        0.94648798954628        0.06504904071950
H           -3.75320939469419       -0.35023820722828        1.05853902806738
H           -2.92936155531072        2.22865280848252       -1.53469642645120
H           -2.09427726172469        2.88594818305320       -0.11679421020932
H           -1.16645370022213        2.05853914365937       -1.38321419950896
H           -1.59503562789342       -0.31285533360872       -1.82345688943599
H           -2.55687440251607       -1.26038935308885       -0.77299350124396
