46
 energy: -87.073953138219 gnorm: 0.000188681152 xtb: 6.5.1 (579679a)
C           -5.15127818970712       -2.87492086989849        1.92637654226701
O           -4.03375647323218       -2.13450211128408        1.46204327311666
C           -4.32596307821531       -1.09423507435869        0.60794499105302
O           -5.49116291242893       -0.85689716731989        0.30996337311704
C           -3.15357777213147       -0.39582226932530        0.15986106286476
C           -3.18025829497336        0.69435836928683       -0.72466499755201
O           -4.15185297077829        1.34277306465093       -1.14719157248061
C           -1.78301516003204        1.12016969223795       -1.26091698443380
C           -1.34516810143306        0.16520847194490       -2.38601093458281
O           -1.89258676879109        2.42233765716970       -1.76338491935527
N           -0.75829231740498        1.06069529458067       -0.19886967866787
C           -0.76817118547883        2.23159163558685        0.69460385346807
C           -0.85564579037853       -0.18073454786824        0.51075644709167
C            0.43063495228302       -0.74254236355470        1.10349869448672
C            0.52957538618696       -2.23463569643604        0.74992189794272
C            0.43391914707764       -0.56016817816194        2.62861726706731
N            1.55409304447033       -0.02500238381627        0.50064226062985
C            2.84599151254853       -0.27023325944110        0.75308867160488
O            3.28314834719015       -1.06059126800576        1.57627673413041
C            3.72196040036107        0.56229634080141       -0.12143183025673
N            3.32055787406647        1.41723540408221       -1.01272045349344
N            4.44058913915383        1.93198983551345       -1.59764986331173
C            5.45254081141682        1.35541055010841       -1.02672029749791
C            6.88908370342105        1.56475464247314       -1.31242470085038
O            5.06553781338753        0.48048427914942       -0.08572436818071
N           -1.91926486424186       -0.86877308835480        0.63276479677785
H           -5.66838454147792       -3.36659776886305        1.09478072281818
H           -4.77208006368774       -3.62843170244612        2.61653503668113
H           -5.86315830176906       -2.22538619510079        2.44754454852586
H           -2.85628718117435        2.61642449110716       -1.76911960282456
H           -1.27829416912800       -0.85674429421195       -2.01782788210512
H           -2.06840615912992        0.21150729493133       -3.19805943766881
H           -0.37020161782822        0.47498681034414       -2.75954688834297
H            0.02983096832805        2.11686281389904        1.42649749476308
H           -1.72618184639208        2.33754767505058        1.21567704941503
H           -0.57615710398517        3.12685245131897        0.10424020396976
H           -0.36938706633518       -2.74162272752446        1.09927948814246
H            0.60538299838864       -2.35544003994245       -0.33025058008089
H            1.40189326747095       -2.68412347489012        1.22114206228094
H            0.46172424633998        0.49755744329981        2.88490149580799
H           -0.47513362558012       -0.99978656474181        3.03756378747432
H            1.29874407505621       -1.05179607656630        3.07124281397589
H            1.31797690466239        0.63875482676472       -0.23198457261951
H            7.00062469134030        2.31514585630301       -2.09087801058347
H            7.40578848735719        1.89400754617191       -0.41141290252977
H            7.34407278520226        0.63003267532658       -1.63924509205658
