42
 energy: -82.971199338969 gnorm: 0.000643000436 xtb: 6.5.1 (579679a)
C           -6.59643831151547        1.08005078891838        0.47179223948342
O           -5.26512781672658        1.26498185587682       -0.02536478570747
C           -4.42041721739690        0.26583820837137        0.14856657984812
O           -4.69660041091915       -0.77332790998693        0.69521595690419
C           -3.04067893537906        0.54652559938556       -0.41414757793436
C           -2.68025787161057        1.80504816617225       -1.10146243515533
O           -3.42418098417149        2.71718995380117       -1.39245134883786
C           -1.22295407007193        1.89585944539935       -1.42615090249319
O           -0.82102314480570        3.06247633397014       -1.92623094320556
N           -0.39164625096956        0.94744408616331       -1.24952723315214
C           -0.84172216718984       -0.31395402188219       -0.72815578837560
C           -0.75780441289449       -1.33274207824174       -1.88095335973368
C            0.10853002109411       -0.69552402966869        0.45424747020842
C           -0.07933594806401        0.31084966304851        1.59533301845026
C           -0.16058680048551       -2.12067875749984        0.93693693069181
N            1.46227488615006       -0.56831878746729       -0.08184689889316
C            2.57519877114919       -0.91634010404944        0.59787991737877
O            2.60808202331545       -1.52414587671316        1.65258146729155
C            3.79368865751558       -0.47663188818492       -0.13255115698987
N            3.82251518827633        0.18497701674958       -1.25024733230254
N            5.13549017613143        0.38650882692244       -1.55394116132992
C            5.82425155033000       -0.16401889099738       -0.60045812942994
C            7.29629079335759       -0.21120186420217       -0.46197330937049
O            5.03404792536466       -0.72478405661357        0.32667185695907
N           -2.18267763924771       -0.38633260916727       -0.24103089106610
H           -7.14885964419820        1.98238133213083        0.21969582898657
H           -6.57190876318293        0.93592119646301        1.55394387020525
H           -7.05159628949357        0.20726247355218       -0.00091070416498
H           -1.58470621583135        3.65880509509101       -2.02014348771873
H           -1.20174036883456       -2.27816977696707       -1.57969295167004
H            0.28298168741999       -1.48369833439529       -2.15741302481028
H           -1.30499224983315       -0.93834752715229       -2.73454508350019
H           -1.09332291307506        0.23903134774569        1.98515823405306
H            0.09455952543216        1.32413503072266        1.23691071618167
H            0.62628774205847        0.09149832824148        2.39517380913465
H            0.33824677515380       -2.29295255063377        1.88900290392974
H            0.20741402651165       -2.84934279604890        0.21723951018994
H           -1.23233510661212       -2.25888417087712        1.07226063334730
H            1.56865190133861        0.07574127889094       -0.85790781650867
H            7.76048199999948        0.23346934867232       -1.33878820829239
H            7.62835330413392       -1.24335394504153       -0.35397042722383
H            7.60356557779287        0.33675459949569        0.42909801461152
