16
 energy: -33.367851675714 gnorm: 0.000415786052 xtb: 6.5.1 (579679a)
C           -1.28037230474313        1.10349321991833        1.30129193525271
C           -0.63554736241260        0.12308000200251        0.30637062689689
C           -1.58832443983344       -1.02817343010005       -0.06042154986913
N           -0.18293339707726        0.79707778530579       -0.85444220041045
N            1.06777582097254        0.68669993188876       -0.96790950812589
C            1.50988662839766       -0.05836461694364        0.09972532377715
C            2.95863483145440       -0.44120132817287        0.38538965833991
O            3.23127377356982       -1.17634329924872        1.27809960288933
Cl           4.05658017583340        0.29024578312802       -0.67055212709425
O            0.56103424681946       -0.40471609579332        0.86149746545453
H           -0.56219775204818        1.88197097647880        1.54906391514852
H           -2.16127837567374        1.53852181146915        0.83581177701870
H           -1.55914526003125        0.55352193643707        2.19706543507552
H           -2.46647673692022       -0.60782292047105       -0.54435838672867
H           -1.87179369416330       -1.54740957617844        0.85194347793337
H           -1.07711615414415       -1.71057917972031       -0.73588344555822
