47
 energy: -80.227658681384 gnorm: 0.000885899083 xtb: 6.5.1 (579679a)
C           -3.18396663358458       -0.05337788571545        2.05443562185518
N           -2.07113633624463       -0.27551891651333        1.13881043210819
C           -2.05414709000796        0.19524575676738       -0.18047217679255
C           -3.11213494110102        1.15330329015607       -0.75418304410765
C           -4.56108137285386        0.67770122673899       -0.57779787156562
C           -2.92249260924439        2.56841295673655       -0.18150664371213
N           -2.89399320296588        1.25676984029140       -2.20056996314759
N           -1.07282228680944       -0.05278942974308       -0.96657533301062
C            0.04577572142191       -0.80548735886196       -0.54797260099227
C            1.21266429319129       -0.68669640345408       -1.39881348480028
O            1.28781942555463        0.06373274774242       -2.38470439590406
N            2.27438961652107       -1.52264228879018       -1.08619601920369
C            3.58708228389575       -1.20897249398388       -1.62937361232962
C            4.23700958400194       -0.09362211442043       -0.83591620335031
C            5.07281025427693       -0.38978409702059        0.23902577910711
C            5.63825153967998        0.62452091231947        1.00096395777838
C            5.34565645417983        1.93328875099657        0.66541943787975
F            5.89135172330453        2.92548605789191        1.39703344136385
C            4.51989860802830        2.26660922874472       -0.39364927198673
C            3.96481946874755        1.23913025445476       -1.14314146464183
C           -0.01745290773421       -1.52593500949989        0.63418114796456
O            0.89512374746334       -2.15472131899091        1.23368784045032
C           -1.41090974078575       -1.57311372655876        1.31600587928960
C           -2.24931511304122       -2.71689837012879        0.70061665369861
O           -1.20073867888387       -1.82785883693558        2.68025062911924
H           -4.05876564135572       -0.66327428909930        1.80489333360689
H           -2.85614513002129       -0.31632727016473        3.06175588410412
H           -3.46466238406780        0.99773014512234        2.05880970155970
H           -5.18466678859929        1.16663601136528       -1.32755478704474
H           -4.63047159183361       -0.40019032426804       -0.72233679514235
H           -4.96107263814052        0.93056243337692        0.40114072516113
H           -3.15729201746049        2.60811638604403        0.88012965721156
H           -3.57919248900708        3.26092123963049       -0.70842408403892
H           -1.89034515549122        2.88970333694224       -0.32318364709363
H           -1.89654084341225        1.39661189323929       -2.36468550284271
H           -3.13479288146766        0.36910892839157       -2.62664936847009
H            2.28736445126609       -1.91022620988437       -0.14766949669766
H            4.20295501850469       -2.11190445809738       -1.58647847131789
H            3.46848440183964       -0.91155964265492       -2.67681050325030
H            5.29414799814368       -1.42239018525362        0.48399536635885
H            6.29385708097407        0.40653718769493        1.83351027977053
H            4.32309184284406        3.30590790587779       -0.62426804381182
H            3.31066704734443        1.47544994510254       -1.97607211356954
H           -0.25816139575705       -2.10494643905341        2.73905659862457
H           -3.18396777412666       -2.83553330476791        1.24555010245003
H           -2.46474783994121       -2.50431002020209       -0.34477649808299
H           -1.68220407725112       -3.64340304157607        0.77192092744473
