42
 energy: -83.601917919572 gnorm: 0.000559004260 xtb: 6.5.1 (579679a)
C           -4.41241140347193       -1.86997733362083        2.10735438415496
O           -3.72741880482615       -1.79415755229124        0.86512969656415
C           -2.73807046970384       -0.85951507367272        0.77938132086398
O           -2.43729403306060       -0.17573407559745        1.74724962949074
C           -2.23664331024871       -0.65996718177744       -0.66097717641543
C           -2.18873338806550       -1.99358535355180       -1.42925486709645
N           -0.91764057143523       -0.05731541250212       -0.64329767288660
C           -0.84758444443316        1.24595447467206       -0.78362085460892
C            0.55998669593715        1.85640882901377       -0.65473700982979
C            0.54013574822107        2.92174668813064        0.45129319145559
C            0.95173314327594        2.48995984470060       -1.99845514608999
N            1.48788180277250        0.78574942997131       -0.30892476398223
C            2.81384258093133        0.92632424559437       -0.11685256517226
O            3.43441069438483        1.99633862916273       -0.19469499084494
C            3.45097528389596       -0.35252045286753        0.21450793041767
N            2.84390437332256       -1.50855195102356        0.38003659106743
N            3.81477298399655       -2.42098885157778        0.68884094088172
C            4.94096521651040       -1.78424341522488        0.69476608451529
C            6.28645043037317       -2.34295607700052        0.96691639966130
O            4.79739059650766       -0.47499486387406        0.40659465559365
N           -1.78458490378088        2.14528944697333       -1.04622329096890
C           -3.07274889847918        1.66188296224324       -1.30573013779203
O           -3.99733871876487        2.44184138509285       -1.70581495623085
C           -3.27723522114037        0.28897889104371       -1.16727838612666
O           -4.54726685240228       -0.24364920230198       -1.47822323079886
H           -4.90584860918358       -0.92069919539203        2.34142183579464
H           -3.71894204560776       -2.11517481744468        2.91867752679962
H           -5.15873733169370       -2.65785364155787        2.01528508827136
H           -3.17754124024274       -2.44763299997634       -1.47302889074620
H           -1.49956260548690       -2.68313587785659       -0.94204168266104
H           -1.83939074945237       -1.80795739171729       -2.44458689174570
H           -0.24854212549689        3.64196630753519        0.22992289092744
H            1.49412344974075        3.44454504761570        0.50962140641819
H            0.33232725300746        2.45711798592547        1.41589260334202
H            0.17285063360220        3.19379096507617       -2.29470208246434
H            1.03965422705191        1.71935503883332       -2.76453937531874
H            1.90087590532231        3.01943085640447       -1.92125476118506
H            1.07095006977780       -0.14552689140788       -0.26762811286519
H            6.19188571475677       -3.37174274972799        1.30541629149429
H            6.79310458462421       -1.75302189333913        1.72953758415299
H            6.89489584608184       -2.31860432610607        0.06274916036904
H           -5.07958150712154        0.52282655343088       -1.75377036640494
