43
 energy: -83.120861094382 gnorm: 0.000323278113 xtb: 6.5.1 (579679a)
C            5.86815712006676        0.96555922788114        1.81609885018466
O            4.62972865146938        0.47131981116783        1.29077800394834
C            4.56184405776290        0.31884164788591       -0.02231004534711
O            5.48642068057990        0.57814314876203       -0.77336557028372
C            3.26272488281644       -0.20697082756900       -0.50319034627602
N            2.29343913849318       -0.45068258829434        0.43950979847597
C            1.15942746573293       -0.92007085307244        0.05129956823000
C            0.10411238961254       -1.26051914254926        1.08084002931763
C            0.24057377908699       -0.35013754567023        2.30371855819945
C            0.25361164860083       -2.73604216272970        1.46643770521055
N           -1.23230181701558       -1.09718480830928        0.48690556177773
C           -1.64930132429565        0.06747512982692       -0.02435071688830
O           -0.98294514833502        1.07293644552779       -0.17361207955108
C           -3.08240917955447       -0.00621626056873       -0.44282028208062
N           -3.88935598753544       -0.99753866300102       -0.39480307105253
N           -5.10078369720575       -0.60482137832321       -0.89003444253443
C           -5.03081127192374        0.62371148737328       -1.23711570042806
C           -6.06943909554217        1.48812907925962       -1.81728611094756
O           -3.73856971014905        1.10055501217710       -0.98131922613957
C           -3.17729951282998        2.43969964729300       -1.17981880395926
N            0.89465336276486       -1.21158697475424       -1.25334622011276
C            1.77483118637080       -0.99245536687811       -2.29872776663093
O            1.46268973562314       -1.25399421028384       -3.44551664838190
C            3.05768304701942       -0.44354397458570       -1.84169491117746
O            3.96668833687220       -0.21304910861950       -2.78673540637769
H            5.74898879026797        1.01266700693564        2.89643118549896
H            6.07461953193269        1.95838911865215        1.41032872698754
H            6.68230587434214        0.28757302425743        1.55008362315139
H           -0.52966235844152       -0.59202276658915        3.03267254474593
H            1.22327015255264       -0.49882256554258        2.74900098345187
H            0.14262303756221        0.69288227546356        2.00831816643156
H           -0.49411392957219       -3.00234787817443        2.21110801778217
H            0.12531547035520       -3.36766774790677        0.58889196078439
H            1.24548111974398       -2.90373797668520        1.88392741698275
H           -1.90119465999449       -1.84002009946849        0.61203218574548
H           -6.97465467386810        0.89827388539940       -1.95268647496022
H           -5.74437341748123        1.88436154172023       -2.77972098760643
H           -6.27937919231805        2.32839649625742       -1.15453323721636
H           -2.33518972265481        2.34032685316012       -1.86157018731843
H           -3.96996232792033        3.04935634277493       -1.60167367594836
H           -2.86007429585915        2.80479910841796       -0.20532488897289
H           -0.00905696202018       -1.58407440270842       -1.49724653007995
H            4.79168782489094        0.15011101209252       -2.38374055663719
