16
 energy: -33.420801451171 gnorm: 0.000446270273 xtb: 6.5.1 (579679a)
C           -3.62123867321490       -0.27508732247746        0.18053338618853
O           -2.24147659428284       -0.23100779848441        0.57260458140311
C           -1.28050542788894       -0.02334658036545       -0.24603355075137
Cl          -1.53372321661643        0.22753530021160       -1.86810063118169
C            0.03477132904511       -0.01984374450504        0.29450947449980
N            0.40573847756356       -0.20206982221409        1.54695362164633
N            1.72700306345761       -0.12157687537563        1.57751375485698
C            2.13690336401626        0.10743124758317        0.34399288053060
C            3.52050098853637        0.27212705888262       -0.12503344777680
O            1.11164210780604        0.17967772211096       -0.49626563495759
H           -4.17966609246320       -0.48114486420449        1.09092103966077
H           -3.76182207241677       -1.06585079114128       -0.55691867518631
H           -3.90573605086687        0.68651687645382       -0.24755159910504
H            4.21164646229078        0.17197973880049        0.70840851371597
H            3.74076318632027       -0.47805555736792       -0.88570941173206
H            3.63519814871391        1.25271641209303       -0.58894330181136
