42
 energy: -83.606107910260 gnorm: 0.000855218561 xtb: 6.5.1 (579679a)
C           -5.97809012220335        0.76044127264105        1.29657306414711
O           -4.64092343919259        0.56417166493268        0.86504729657413
C           -4.46789005070294       -0.31314113677560       -0.15652020870159
O           -5.44369958326016       -0.87633933200151       -0.65328862537515
C           -3.07111895765299       -0.49411659337947       -0.55851703334056
C           -2.73286985777599       -1.44897052575390       -1.51074940743404
O           -3.66900998534077       -2.21614840913820       -2.17819918402522
C           -1.30316817028411       -1.79396722023136       -1.72387660153456
O           -0.98612267183520       -2.81098860751409       -2.40522480942640
N           -0.39866807639754       -1.02237843465084       -1.13185760126010
C           -0.80877576877072        0.18330221943805       -0.44499789235637
C           -0.57692394840423        1.38207210544907       -1.41663803841407
C            0.15730422831613        0.32320501063134        0.79825760966531
C            0.00287332931614        1.67995233349455        1.48557695051027
C           -0.18064760745875       -0.80611702215674        1.78340131779323
N            1.50529117567919        0.10699684544388        0.28581840499594
C            2.67179738599387        0.51115433229007        0.81668619044087
O            2.80553966810510        1.20988198128587        1.83049156508485
C            3.81394980506059        0.03301010757798        0.01947880773179
N            3.75516367837275       -0.68765900256967       -1.07557234734790
N            5.04691821912876       -0.92870828203485       -1.45827258978269
C            5.80839515524772       -0.35213196777717       -0.58615383394234
C            7.28993223375417       -0.32716289181805       -0.56732558556064
O            5.10659480243408        0.27464976071256        0.37794140282725
N           -2.16008382496833        0.27894717305454        0.06771184243757
H           -5.94872259557927        1.46886203574451        2.12369098482006
H           -6.59225502303953        1.16499139450819        0.48585230706702
H           -6.42013358269032       -0.18246441867081        1.63401968461789
H           -4.56258250394769       -1.96636780058492       -1.87696988622599
H            0.48411730980825        1.49130754718967       -1.64184060202725
H           -1.11479270019519        1.19049649805936       -2.34504398791681
H           -0.95563754761977        2.30603130208695       -0.98231737017949
H           -1.06275857552341        1.89713714810590        1.58012893148201
H            0.47592792155499        2.47261840016841        0.90729737758538
H            0.44602282851893        1.67272989670575        2.48117170891996
H           -0.08446385232963       -1.77218802383599        1.28501719811136
H           -1.21046912180465       -0.68486402789781        2.12232142633967
H            0.48483161250215       -0.78275709069324        2.64614031814121
H            1.52695648613718       -0.55043313009062       -0.49886413114183
H            7.67350615082262       -0.90358376586025       -1.40533051941596
H            7.66369045364112       -0.74999879029070        0.36459087320562
H            7.65099612258411        0.69852844420632       -0.63965200708608
