43
 energy: -83.890348432346 gnorm: 0.000585851790 xtb: 6.5.1 (579679a)
C           -5.87557749817377        1.64984856571237       -2.00829882075544
O           -4.67097994386763        1.10945935463146       -1.46294237972474
C           -4.55193415351341        1.14777271817256       -0.13670182771737
O           -5.41428046509153        1.62588145186954        0.58674053957473
C           -3.30058529808269        0.55854026590658        0.37312750796073
N           -2.40988014129809        0.07737780989077       -0.55216108205633
C           -1.30366585261866       -0.44492372846981       -0.13666269939504
C           -0.30219449551417       -1.02593097355605       -1.11899790043593
C           -0.44855205454482       -2.55208180918947       -1.11007288979459
C           -0.57427886686420       -0.46756791949130       -2.52155373589040
N            1.04763986969402       -0.69147530883823       -0.70350422150336
C            1.33220450769400        0.60676956331979       -0.26036669971113
O            0.49713737467288        1.52257404141163       -0.41126543705089
C            2.61036666309750        0.75033026537076        0.32060796842991
N            3.15974580268738        1.86119814083489        0.79326301041373
N            4.35159538588659        1.63381117858925        1.25038046207395
C            4.64265914399769        0.20575640215229        1.05740712103242
C            4.91135042213126       -0.46221224171757        2.41403633101891
C            5.84723399161459        0.04591198639628        0.11629154998550
O            3.47611135909669       -0.34749119086049        0.45844029493397
N           -1.01079215674332       -0.56471468256583        1.19046282322237
C           -1.81327710301265       -0.10607883321254        2.21450562479908
O           -1.48039918488829       -0.23901814835060        3.38433327036711
C           -3.04738984435339        0.50690888040071        1.72750778347468
O           -3.88463742737259        0.97855219982630        2.66376271695140
H           -5.85839743845104        1.43984086619821       -3.07585983303348
H           -5.91733232385950        2.72828722709254       -1.83548897911795
H           -6.74437414799524        1.17805458158063       -1.54317240683223
H           -1.45400648834985       -2.83151998018977       -1.42110951527535
H            0.26910099175888       -2.99646022494913       -1.79725266271043
H           -0.26808882641214       -2.94391657183985       -0.11026788906646
H           -1.58000969350695       -0.73840420444810       -2.83929378449947
H           -0.48779074849080        0.61903891212666       -2.51024750274538
H            0.14805653877875       -0.87879522103527       -3.22401550145117
H            1.63671452586619       -1.44020202824111       -0.38046680570690
H            4.04893110834039       -0.32119853854458        3.06345118059660
H            5.78565154042870       -0.01137216251400        2.87941063759906
H            5.08348223290557       -1.52809096230667        2.27832162719045
H            5.62544479363820        0.52433081342466       -0.83638751798458
H            6.05240710269953       -1.00904543646514       -0.05492848053213
H            6.72298348844211        0.51798349487708        0.55726431311330
H           -0.15460422347394       -1.02931151598315        1.45998137109734
H           -4.69578846693504        1.34158296294474        2.24296543916395
