20
 energy: -38.329122820344 gnorm: 0.000409768601 xtb: 6.5.1 (579679a)
C           -2.64593386825883        1.46770409696371       -0.35113616335966
O           -1.35097077995030        0.89589996172809       -0.47348851768505
C           -1.29790984118744       -0.46275868677992       -0.44423381409575
O           -2.31906659367618       -1.14124044721990       -0.35920779987929
C            0.11104029066593       -1.01466782157964       -0.25601592548708
C            0.27859748259465       -2.42004849753029       -0.83676630387824
N            0.09246586755701       -0.97306399581788        1.20605718422525
N            0.99923761867138       -0.00036545717383        1.54493300210803
C            1.57223616130663        0.45621970707731        0.49744586785060
C            2.64503097198349        1.48441331763877        0.41727241788178
O            1.12729915505052       -0.13166390231032       -0.69596377669660
H           -2.51891795194979        2.54927994350135       -0.32269479622826
H           -3.27012050399330        1.19401820787039       -1.20821151772664
H           -3.14020389795836        1.12799188383200        0.56551975831249
H            1.20660594313436       -2.85223238200031       -0.46842882730072
H           -0.55852461173388       -3.04016959165464       -0.52162211880211
H            0.31007762262508       -2.37751069824487       -1.92414688734048
H            2.31872593556150        2.34860371109104       -0.16494086691910
H            3.53673994909002        1.07670203008123       -0.06315021186461
H            2.90359105046773        1.81289062052723        1.42243329688518
