33
 energy: -58.562581640943 gnorm: 0.000926360181 xtb: 6.5.1 (579679a)
C            3.96004909015501        2.02869576576164        0.37552553432560
O            2.71850590207530        1.34311276486731        0.25617830277297
C            2.75511945915846        0.14855246030922       -0.35974457902878
O            3.80699085547459       -0.29842679395447       -0.79557745305654
C            1.43713729118969       -0.52227516851144       -0.43538628157450
C            1.31160157593451       -1.74265357226481       -1.11339335340878
O            2.39530115201190       -2.43883899391941       -1.65047052164464
C            0.01282460518425       -2.29045978788222       -1.34560905498155
O           -0.25792244180424       -3.32486026113217       -1.98101448114554
N           -1.03233611094695       -1.49236883524860       -0.87663994947108
C           -0.82767073280572       -0.57820262825674        0.24468559246092
C           -0.87433865481926       -1.38127377080094        1.57144878314134
C           -1.96174338300069        0.49417873495019        0.21123983468389
C           -1.93085955960289        1.21247864562908       -1.14717979448998
C           -1.75932155830803        1.51506152916217        1.33526608492601
N           -3.25473736942662       -0.16457304844189        0.41826945046568
N            0.43616364464684        0.11894034949362        0.15875884686521
H            4.66121560760787        1.44613233345423        0.98016116296042
H            3.75307412636472        2.98065197466176        0.86171092789159
H            4.40044655126503        2.20098114318549       -0.61077774224986
H            3.20797543159672       -1.92417195736259       -1.49532546283284
H           -1.92087459829780       -1.97170311054652       -0.85428781865284
H           -0.21675023821983       -2.24739781059348        1.50097316828028
H           -1.89109284606745       -1.71979423823639        1.76689035923040
H           -0.53743594306214       -0.75585513654447        2.39673923516945
H           -2.07223159619071        0.49499640714285       -1.95624694324861
H           -2.72218856712412        1.95904010772694       -1.19914201915273
H           -0.96593843302761        1.70518855081812       -1.27946906511287
H           -2.43199606422846        2.36238770582543        1.20036039475664
H           -1.96755513053970        1.06681524286789        2.30659254327148
H           -0.73031912142958        1.87825162895590        1.32531513903872
H           -3.54368791125358       -0.63470588740953       -0.43082027337214
H           -3.95740403250964        0.53209465629301        0.62097043318207
