42
 energy: -83.004929731817 gnorm: 0.000295319437 xtb: 6.5.1 (579679a)
C           -3.99077380458459        0.59638943483246        2.90632275907220
O           -3.40415324944448        0.99383078576450        1.65579532994325
C           -2.67954024279943        0.09964095263014        1.02101353975846
O           -2.47996828881647       -1.02704581173067        1.38927194041918
C           -2.11178638058639        0.65698030829109       -0.31908635472040
C           -2.04133808373521        2.18242897158958       -0.31933676919219
N           -0.78468699111208        0.09741585781165       -0.43181187127794
C           -0.60833708995674       -1.05205643445888       -0.93727546468277
C            0.76462297297327       -1.69397518648844       -0.90825258536133
C            1.22600082722348       -2.05535608213620       -2.32624903394925
C            0.70879058845726       -2.93034042222429        0.00230516265352
N            1.67119399465123       -0.70203247616308       -0.33700314398529
C            2.98073778626720       -0.91918387877803       -0.12206547008722
O            3.57795229950262       -1.95614668585708       -0.36679203267949
C            3.67110664724119        0.26114133123073        0.45951415678044
N            4.92086006401426        0.35639190168506        0.79157684656251
N            5.10719138309342        1.62017021257493        1.26668829379044
C            3.95998785743695        2.21927661465151        1.19405769524611
C            3.64121389745442        3.60975015628759        1.58436666891752
O            3.00718063133485        1.41491509692254        0.69287053992046
N           -1.62115145058737       -1.80070318107924       -1.52202587921522
C           -2.85783509518759       -1.30975618294393       -1.81722133000634
O           -3.69447801993822       -1.95827032353889       -2.40219701422118
C           -3.08525681739694        0.13697145958616       -1.36117389904841
O           -4.00821624945669        0.78707542377490       -1.77468748315001
H           -3.22276337774536        0.17473638529063        3.55694972608823
H           -4.77000805979239       -0.14665715652004        2.72700142680202
H           -4.41386907025850        1.49642899051406        3.34566858432677
H           -1.55669728274545        2.51796854088808       -1.23395678617342
H           -1.46469073626542        2.52266287593042        0.53684361649344
H           -3.04488401200266        2.60081328835563       -0.27069508063094
H            0.53641675226856       -2.76570487512577       -2.77677546169521
H            2.21537398232485       -2.50783707506957       -2.28494402456688
H            1.26738767632207       -1.15876808925717       -2.94244773330534
H            0.02278589975862       -3.66592053469626       -0.41184416002731
H            0.36541172044575       -2.64160533202325        0.99475220749000
H            1.69817535841929       -3.37724469213052        0.07847939970002
H            1.26178578354812        0.19165807880185       -0.09660474525940
H            4.53639126015754        4.09717812029145        1.96295093435368
H            2.86963456985709        3.61409537318601        2.35365737691902
H            3.26187689928476        4.16003773647820        0.72370690657331
H           -1.43164354961933       -2.73935447713465       -1.83978278857387
