33
 energy: -57.874590280484 gnorm: 0.000217067207 xtb: 6.5.1 (579679a)
C           -1.78678013708317        2.12490887230172       -0.38741901433277
N           -2.04970011071945        1.14514200913729        0.69816168763093
C           -2.05954573605349       -0.31392428652571        0.32202252438958
C           -2.61936120613465       -1.06293025806207        1.53492750775171
C           -2.92719036572436       -0.53929153486059       -0.91505237143674
C           -0.61977791445173       -0.70299205620888        0.08486260417616
N            0.30187229821048        0.17764186608794        0.25464732005976
C            1.62372718240834       -0.14833935693856        0.04220676063783
C            2.53641920634110        1.02536256537481        0.18845352585449
O            2.12566088268541        2.15013341139858        0.36461022148810
O            3.82123067230937        0.71474708936633        0.08852858365579
C            4.75328488544694        1.79951945922738        0.18300995537298
C            1.96940460093256       -1.42220325641208       -0.31397021756941
O            3.21843721398139       -1.82800447246250       -0.53816244632319
C            0.93314411288499       -2.44342629710341       -0.49087715395170
O            1.17721774578343       -3.59310324319698       -0.80780402914361
N           -0.35207198230704       -1.98721918277885       -0.28072308379012
H           -2.58808068445815        2.07494264061346       -1.11739140591837
H           -1.76009847345172        3.10925018798678        0.07435914380050
H           -0.82516470172463        1.89200625772976       -0.83842869017392
H           -1.31631922874381        1.26287232194828        1.40095662266423
H           -2.94158386619204        1.37339091682049        1.12728470483579
H           -2.02378080084504       -0.84827362813137        2.42084943915734
H           -2.59429362296377       -2.13401165621509        1.34378839673509
H           -3.65043669556662       -0.76399859365765        1.71372111300362
H           -3.07052963976864       -1.60909696054347       -1.05613849026841
H           -3.90205384248125       -0.07587465081196       -0.77603052563198
H           -2.45416793960552       -0.13198917766174       -1.80670250489097
H            4.60576301321503        2.33862830373006        1.12151631529349
H            4.61014244012175        2.48510211185834       -0.65539159130802
H            5.74769184696526        1.35851898166289        0.14812095949144
H            3.21343269690193       -2.77106941867401       -0.78795550496798
H           -1.09649084991851       -2.65641896499640       -0.40272035629012
