42
 energy: -83.615682245134 gnorm: 0.000360485205 xtb: 6.5.1 (579679a)
C            6.19412052918171        2.47235163408434        1.23212052155740
O            5.22580178919860        2.23073988801000        0.22461552382448
C            4.17784266084521        1.44064744454410        0.58896546245404
O            4.11432468196607        0.98956518917663        1.72891652110761
C            3.20068851899516        1.20239045185179       -0.45811376011961
N            2.14673054668358        0.40558689440657       -0.03617396344625
C            1.20116632162050        0.10032462778112       -0.84633361510148
C            0.06584998524619       -0.81727618667978       -0.43876989692488
C            0.48168876227313       -2.25736961519647       -0.77699488383411
C           -0.20749330095704       -0.67732087409940        1.06572815872698
N           -1.11227159886043       -0.44467775177388       -1.24676291316681
C           -2.30021467337061       -1.23010820004171       -0.98141924850513
O           -2.45097932925795       -2.34110513870285       -1.86462916725771
C           -2.96714126511296       -3.50094313082643       -1.24638991159846
C           -3.40051725400638       -0.65401627664207       -0.40244739807169
N           -4.65677921861362       -1.15230261896824       -0.28371723544432
N           -5.34413970896209       -0.25936361674685        0.51795523633886
C           -4.53928859527099        0.68735418462463        0.84358496656245
C           -4.83164912702056        1.87539347742272        1.69073241968510
O           -3.27650069083981        0.53157267144499        0.31575237827195
N            1.19830091046504        0.53369934619027       -2.15493804742973
C            2.16557706671339        1.32368184177773       -2.70392341818757
O            2.08102191780479        1.67382165224972       -3.88346610909242
C            3.29996672215339        1.70749408171082       -1.78056946773329
O            4.21993689824553        2.42094528340162       -2.23259343444987
H            6.65054252759354        1.53520021102215        1.56715998895384
H            5.74251684204369        2.97021560663299        2.09647719021861
H            6.95740123211299        3.11607035823590        0.79631817758037
H            0.55973551935972       -2.37676928224169       -1.85781259891844
H           -0.25654648807489       -2.96298776223830       -0.39912820226032
H            1.44561749812939       -2.48510985300560       -0.32229711469029
H            0.70446417391680       -0.87526675570963        1.62894549857622
H           -0.55059489154205        0.33236056976850        1.29141955180775
H           -0.97832030714531       -1.38583945379799        1.36817739272621
H           -1.33480695404704        0.52619040907591       -1.02300184018044
H           -2.38093545480986       -3.78542181140442       -0.35961635785446
H           -4.01395127029136       -3.35842183784170       -0.93572529057234
H           -2.92052889483581       -4.31388652500417       -1.97609247999194
H           -5.88594313928191        1.87323382084521        1.96052958245884
H           -4.23343125453394        1.86018148720377        2.60375497056603
H           -4.60270257648110        2.79786668913705        1.15430971185304
H            0.41144188877036        0.27129987030977       -2.73542089844391
