42
 energy: -83.618200383480 gnorm: 0.000904994865 xtb: 6.5.1 (579679a)
C           -5.80455927547531        0.88941512878442        0.51392508516481
O           -4.93655266543936        0.10966158666569       -0.29583113613724
C           -3.62970742929074        0.08238026595089        0.08327817929507
O           -3.24430557023808        0.68081977216456        1.07969506994377
C           -2.74149937466036       -0.63047532174177       -0.92242158633523
C           -3.44597821043173       -1.81923491437890       -1.58004238439412
N           -1.53085467648033       -1.08315903518996       -0.25815356886948
C           -0.62009208351731       -0.20408456211962       -0.04950245584551
C            0.55184626063946       -0.54243150734112        0.85950750305821
C            0.26039818871647        0.09966355337523        2.22295800550833
C            0.69189791273451       -2.06190100867601        1.01479811917375
N            1.77897439610333        0.06158898824034        0.34190863599929
C            2.30451484051324       -0.39184646337250       -0.87841486309307
O            1.61289973802039       -1.00171065498220       -1.71868423467258
C            3.67175140070732       -0.02992440421582       -1.08565844024220
N            4.42480286457730       -0.25983163525245       -2.16485714287535
N            5.66639043847165        0.24017101481608       -1.88461230141097
C            5.62773414657302        0.73532577529703       -0.69193155643005
C            6.73906381479347        1.38140440891894        0.04908817013968
O            4.40984187411916        0.61483879765160       -0.10701425464875
N           -0.67347510811250        1.07262339287052       -0.50960909277532
C           -1.49282411889663        1.44382033659546       -1.62358688777180
O           -1.16459130685303        2.49733307957038       -2.24332291637904
C           -2.53750471438838        0.54002360000245       -1.92787561684028
O           -3.34312975008590        0.63757088472126       -2.91659969737452
H           -5.52120665071068        1.94671582438532        0.48778614179086
H           -5.77723348991550        0.54359081783530        1.55179038853154
H           -6.81049419862480        0.76760910896589        0.11526143243308
H           -4.31499498762911       -1.47888481399866       -2.14199356440108
H           -3.76775433789795       -2.53473740753214       -0.82455101564323
H           -2.75877609923496       -2.31871488056588       -2.26328108180766
H           -0.70030431495070       -0.25359181034671        2.59725197029893
H            0.22192952058600        1.18414728934165        2.12615554780640
H            1.03612169120225       -0.16086713731243        2.94074943349633
H           -0.22485476847463       -2.46653657897264        1.44234233271694
H            1.52591439842878       -2.29535097116927        1.67376042785519
H            0.85888246733478       -2.53043298887806        0.04523915588980
H            2.47438385547156        0.24090162052021        1.04903711857461
H            7.62417323526629        1.41736807786395       -0.58107631570733
H            6.46347699261809        2.39409430775351        0.34283093397995
H            6.96672068575490        0.82021786684042        0.95512016841711
H            0.12897440867885        1.66243259691144       -0.34851270642118
