38
 energy: -79.621474307732 gnorm: 0.000637989981 xtb: 6.5.1 (579679a)
C            6.06461418142380        1.83251544288079        1.49346584955051
O            5.08333348878422        1.51939697860665        0.51625302621223
C            4.02645425243546        0.78686747718164        0.95236954748795
O            3.95440989968330        0.43549036199228        2.12504337982996
C            3.03659193711512        0.48016148626710       -0.06821637788246
N            1.98021605828959       -0.26709258572442        0.41964330470862
C            1.01923736997163       -0.62843752744470       -0.34743817444677
C           -0.11436904228639       -1.47048961872720        0.21769431847942
C           -0.27298587126287       -2.78447287262794       -0.55659686937950
C            0.17722726122256       -1.77062006968628        1.68977928333515
N           -1.37751572900995       -0.70674638342303        0.19037360045922
C           -2.13765796982683       -0.47074065288801       -0.89161796336177
O           -1.86216389592552       -0.75486487142836       -2.04695191354203
C           -3.39933881816219        0.22088296833600       -0.51157801602536
N           -3.74297236892305        0.58604909728390        0.68709406651415
N           -4.96679117929120        1.17719191045445        0.58226416168463
C           -5.29142407201396        1.13367588704918       -0.67387327779670
C           -6.52999247064839        1.63972645589640       -1.30485549259613
O           -4.34189983053082        0.54413688865942       -1.41533593238405
N            0.99245220514201       -0.29278991901104       -1.68327185612991
C            1.96172180831401        0.45362252392843       -2.29868548997009
O            1.85919005065829        0.72845529709488       -3.49284739373417
C            3.11740640458017        0.89056993258816       -1.42453271180671
O            4.03087582144816        1.56243143885591       -1.93893679274548
H            5.62118813037764        2.38855979286052        2.32567395719751
H            6.82074420231880        2.44472735420455        1.00335506164752
H            6.52551350081776        0.92079174617416        1.88661559882638
H            0.63214792110056       -3.37868556304592       -0.43911525280670
H           -0.43937186153846       -2.60654544467005       -1.61664281818231
H           -1.11717688234104       -3.34552710610382       -0.15936192611056
H           -0.62938241907852       -2.36205444143466        2.11813935601999
H            1.10929878224611       -2.32795800211110        1.77001979682089
H            0.28213349652678       -0.84285476841008        2.25127952879732
H           -1.76320273491467       -0.44573153570866        1.08537855094752
H           -7.18657497205862        2.05057803062204       -0.54224865142916
H           -6.28952883932844        2.41289712349993       -2.03460969489860
H           -7.03854100918784        0.82985894083083       -1.82749137886502
H            0.20613319388376       -0.58297377281683       -2.25014740441807
