42
 energy: -83.010305083269 gnorm: 0.000538078796 xtb: 6.5.1 (579679a)
C           -6.52126527412598        1.73161998687574        0.86099299434146
O           -5.35678082477779        1.11573122203190        0.28860244800987
C           -4.23339556351251        1.19904867917836        1.01351961546229
O           -4.18416306218043        1.75100027243128        2.08537785114391
C           -3.06144835947769        0.54806071879425        0.35797478496947
N           -1.92696344202980        0.60701958853160        1.08724505910512
C           -0.82643102354085        0.08301909140420        0.60416626853464
C            0.42003204800640        0.13304125750940        1.46488517717943
C            0.37900544045915       -1.05700601641652        2.43828884316065
C            0.48836160707632        1.46201633784600        2.22410018173164
N            1.56762038635620       -0.00084364056838        0.56941736921315
C            2.84898642224077       -0.02060812113741        0.97443763894547
O            3.23814371645122        0.11412233335120        2.12273284343245
C            3.76212737472076       -0.22011142555880       -0.18405211867056
N            3.40301039419014       -0.34858800671698       -1.42643541950084
N            4.54636996562380       -0.50742996460653       -2.15151858214174
C            5.52972448361708       -0.46627140749415       -1.30450567096936
C            6.97475474459267       -0.59588805121430       -1.59490915330280
O            5.09893732785090       -0.28627473985494       -0.04693475278631
N           -0.73628288569959       -0.53605123811348       -0.58470835973792
C           -1.82495682675763       -0.61979169546199       -1.32078097303251
O           -1.78166128221684       -1.23040862226893       -2.50639823404467
C           -0.53771347477565       -1.80512625646717       -2.90016671148015
C           -3.06544514271347       -0.07322593115983       -0.88354528696694
O           -4.11912324290418       -0.20539966490672       -1.70144213164497
H           -6.73874624507405        1.28173591498809        1.83194038380398
H           -6.34986895814022        2.80304722771451        0.98446014990716
H           -7.33962344260833        1.55519090626754        0.16767427233853
H           -0.52440386497247       -0.99693970687343        3.04311756045002
H            1.24954360175128       -1.03660941158081        3.09175478289771
H            0.37237468138568       -1.99150816785687        1.87941656096318
H            1.34629359129046        1.47165365924405        2.89361803098021
H            0.57286715089571        2.28844465124916        1.51993108182277
H           -0.42305505629092        1.58637902133840        2.80709134532910
H            1.36111967713273       -0.17751863839624       -0.40605336910261
H            7.38629032352249       -1.45409158642819       -1.06304052077232
H            7.50565544488359        0.29515916359623       -1.25945004320898
H            7.12063574341549       -0.72622434205092       -2.66453414412770
H           -0.26051220483611       -2.61097327513946       -2.21523580076858
H           -0.68289662329494       -2.19768946852096       -3.90536016140625
H            0.25048637984273       -1.04726627306854       -2.89766819525713
H           -4.92760370537591        0.18555561950673       -1.32740061479895
