33
 energy: -57.818350532391 gnorm: 0.000615607136 xtb: 6.5.1 (579679a)
C            2.95844833409003        2.38131476119303       -2.22971967828792
O            1.93062842821331        1.55663051637745       -1.65028432732944
C            2.31243721312626        0.47976631670830       -1.01584768562609
O            3.45069418116646        0.10778677003251       -0.86916503861437
C            1.14656089564847       -0.29776898382684       -0.43281384818764
N            0.01746930284264        0.31106492063919       -0.28749299438377
C           -1.04509516303703       -0.36983403271157        0.21577304392562
C           -2.33701736261527        0.34621593483769        0.42004197458516
C           -2.12660495384758        1.29963203388269        1.61212955488024
C           -2.68661848793687        1.15328387372406       -0.84354844995884
N           -3.34819051846775       -0.64277699470799        0.74059626834665
N           -0.97713621771839       -1.64659190476646        0.51605895814702
C            0.15701101803367       -2.48086538999846        0.31276911928309
O            0.06083057478106       -3.66308888005999        0.40963133117755
C            1.42560260295111       -1.67526519825427        0.09971886464761
C            1.96491431027251       -1.43005281779540        1.55059810580225
O            2.32514996179017       -2.41889378326078       -0.64228623521426
H            2.46653112008482        3.29408080731102       -2.55774748313543
H            3.40765339911161        1.85822268355021       -3.07573622426162
H            3.72223420106702        2.59532894039249       -1.48024348349495
H           -1.92493818937300        0.72746964799652        2.51539106521039
H           -3.03217731797689        1.88658103726850        1.75215906695387
H           -1.29089775830702        1.96880163167308        1.41376312567931
H           -2.82758297025170        0.48271792375281       -1.68903071240007
H           -3.60831337966390        1.70204735022810       -0.66393147532411
H           -1.88434048577260        1.85352797341219       -1.06998685550457
H           -3.81589977601490       -0.95351877975290       -0.09963242990751
H           -4.04263932651560       -0.25309124879052        1.36148586366830
H           -1.85864503171997       -2.07352597994591        0.81536175209794
H            1.23579304432080       -0.89173306549400        2.14960630124648
H            2.88679220045518       -0.85754615498760        1.48192455236918
H            2.16906425901794       -2.40396094749789        1.99171765342816
H            3.16828389224761       -1.94595796112772       -0.75125967982165
