43
 energy: -83.165997305875 gnorm: 0.000634725502 xtb: 6.5.1 (579679a)
C           -4.18568478028024        2.91082260228674        0.99476274852868
O           -2.94255889877271        2.93670991772332        0.26198641103208
C           -2.35641787658541        1.85627419182111       -0.08315889269732
C           -1.08934951670108        1.98888748472383       -0.82400862553800
O           -2.93193929716688        0.74860473844347        0.23877260483198
C           -2.47465575153753       -0.54888298316345        0.02245719014022
N           -1.14845839096200       -0.71971837169599       -0.17856917676394
C           -0.68548111538163       -1.92315144720421       -0.35206454427059
C            0.79691567336696       -2.11243860911706       -0.59008549019058
C            1.02231271607290       -2.39416424558694       -2.08465126431365
C            1.37741843377343       -3.23024184957763        0.28432060564133
N            1.41427829312372       -0.84297387310881       -0.22673760669994
C            2.71356174147059       -0.52501745200162       -0.39743550929637
O            3.58610811302263       -1.26846199877860       -0.80141738433906
C            2.92847223727467        0.89686091927414       -0.01323025725096
N            1.99723375754743        1.73703545107231        0.33808811693078
N            2.61381473859201        2.92571567210682        0.58801774300866
C            3.88191957211508        2.73661306929839        0.37060670082845
C            4.97793198996184        3.72219368051260        0.49567281490127
O            4.13783650987658        1.47667306812395       -0.01167822809114
N           -1.50531863997936       -3.00176666203062       -0.35987518271605
C           -2.87386935175853       -2.93388191845562       -0.15282096006645
O           -3.58417897036971       -3.91975038017407       -0.15099581736162
C           -3.36858303490344       -1.57835098508642        0.06024485631825
O           -4.67884003335970       -1.41106091971202        0.26349074124702
H           -4.03551645136254        2.38490972116681        1.93780132764820
H           -4.94222656584748        2.40008785936822        0.39837785884451
H           -4.45253997994577        3.95181642934689        1.16083680915072
H           -0.24675466823718        1.81843518600922       -0.14270896218534
H           -1.00954511528209        2.99480553576810       -1.23197428158357
H           -1.02504561225980        1.23607876205598       -1.60671517130211
H            0.49337491544875       -3.30075972369029       -2.37114804298970
H            0.64989441612273       -1.55963626900999       -2.67621576975526
H            2.08663854469213       -2.52439457643343       -2.27439188228632
H            1.17994737390366       -3.02211964698219        1.33444815520057
H            0.93626795379188       -4.18803726687562        0.01758926139286
H            2.45366969242332       -3.28366694805287        0.12487236175332
H            0.78771105039977       -0.12426363081080        0.10434941303404
H            5.76124587228588        3.32852645580985        1.14350655391028
H            4.58949194813812        4.65024067878763        0.90828640674743
H            5.41588529434308        3.91556830846049       -0.48420305535369
H           -1.13384149613959       -3.92997014774095       -0.51189119046487
H           -5.13112629093000       -2.27414782687699        0.23808961441626
