20
 energy: -38.328692661597 gnorm: 0.000857970276 xtb: 6.5.1 (579679a)
C           -3.38574338788820        0.35122462030430       -0.31711046187569
O           -2.19081655279560       -0.40897465295760       -0.44079672444862
C           -1.10258938331171        0.06005308951265        0.24576880182462
O           -1.18878320019548        1.02908970114202        0.98924438144865
C            0.18561045046489       -0.59106646652375       -0.24537133807013
C            0.07559119460185       -2.08304595558888       -0.56745626415026
N            0.32975822111565        0.26813278160022       -1.41909459228631
N            1.42153827906573        1.05778927921492       -1.15110549308741
C            1.94275309550536        0.72594080162038       -0.03245802283066
C            3.15907956130211        1.29432176422473        0.60935568642295
O            1.27755306451700       -0.32135664662688        0.61699822060128
H           -3.64343843634455        0.50091798681754        0.73679420386739
H           -3.27718572576485        1.32985233598963       -0.79785350132838
H           -4.17707801120733       -0.21288477355577       -0.80995472964838
H           -0.14672083898232       -2.65256321562609        0.33315608375141
H            1.02200660988280       -2.42490212232014       -0.98190134171220
H           -0.71271621190224       -2.23953131125107       -1.29996316268888
H            3.92191176710682        0.52445922475813        0.74087924561343
H            2.92848061368011        1.70674476291120        1.59377312039100
H            3.56078789115056        2.08579879635456       -0.02107711179354
