47
 energy: -79.482888277809 gnorm: 0.000515613301 xtb: 6.5.1 (579679a)
C            5.37740541644563        1.96156114317694        1.14191094601086
C            5.19662047943688        0.66825447943131        0.30410670137887
C            6.14093418752153       -0.38733421502621        0.71988563058099
C            5.71360397706929       -1.66577217502548        0.89228451436076
F            6.57696748450341       -2.60571323041192        1.25484894641301
C            4.37152327699999       -2.03885437928255        0.71966563852179
C            3.43358511079775       -1.08621806173137        0.34686026058778
C            3.78717997811959        0.23794562819956        0.15405553299370
C            2.76922243187637        1.26248575987836       -0.22302721107939
N            1.52044760679863        0.66741793011071       -0.63491965039632
C            0.40585646466490        0.82773731248260        0.12643060172235
O            0.39100207234007        1.54411973891799        1.11293452626423
C           -0.78435003942693        0.05065309840661       -0.33821687865068
N           -1.99757257085660        0.58569288668598       -0.02443674457254
C           -3.10371545143927       -0.02341519183396       -0.32478602822214
C           -4.38341184101054        0.69440441192994        0.08699055321711
C           -4.82568343061148        0.17026566257888        1.46088483879689
C           -4.10030297027529        2.20458688409816        0.18183388121914
N           -5.44092831096498        0.46710269572822       -0.88583621354650
N           -3.11235204365291       -1.25560123673093       -0.92606134005625
C           -4.33818445485371       -2.00424618926732       -1.21995361894606
C           -1.93450764064830       -1.87326567991276       -1.30866369617142
O           -1.90362373135012       -2.96205845828208       -1.87580517942815
C           -0.72230297120579       -1.15043438212591       -0.97935199868830
O            0.43445075780836       -1.76290436180113       -1.31787584811680
H            4.98807918283284        1.79914689519054        2.14455094404727
H            4.84762468382972        2.78649384673573        0.67255207654473
H            6.43560548170360        2.20693791600290        1.19982894512114
H            5.52489142410408        0.95909767481952       -0.71131085237415
H            7.17880799266437       -0.11650540260819        0.86850927441387
H            4.08255910110426       -3.06982535058514        0.88682456399071
H            2.40026823281909       -1.38715553150209        0.20951956088132
H            2.55406205801371        1.89237791216217        0.65376790477457
H            3.15828963919147        1.91535929457805       -1.00998301926450
H            1.52554998622889        0.07762099314857       -1.44892253707968
H           -5.08094781425544       -0.88671520773684        1.41232169546611
H           -5.69967733515013        0.72498003884783        1.79899208115690
H           -4.02072122233192        0.30463469062937        2.18247791269767
H           -3.35782539538621        2.40289975415884        0.95349552085478
H           -5.02175984053287        2.72947621842677        0.42696337386253
H           -3.72417737545556        2.57341120254682       -0.77087276281159
H           -5.24919143978405        0.96894976653920       -1.74142012213817
H           -6.32895133872605        0.77689518128453       -0.51851307477617
H           -5.03791193414901       -1.91327208216160       -0.39538698713971
H           -4.06795871509393       -3.05051940495383       -1.36139713026677
H           -4.79486402191921       -1.61718955917102       -2.12930031999730
H            0.21638686220769       -2.60351091653980       -1.76645421216291
