42
 energy: -82.984914270730 gnorm: 0.000297150690 xtb: 6.5.1 (579679a)
C           -3.76483201826568       -3.77145347094112        0.20080110659617
O           -3.49979365686572       -2.38153346126365        0.43341503314876
C           -2.61665065879838       -1.80212194367788       -0.35922801279420
O           -2.03581046278451       -2.35133532144871       -1.26042054085491
C           -2.39347507122102       -0.34649765707267        0.00755023113170
C           -3.51682211581865        0.47899967007803        0.53150820607976
O           -4.67840168342115        0.18211250036129        0.40786398780688
C           -3.08040486200271        1.77870978694005        1.21006361179402
O           -3.81578082382905        2.42214978437069        1.93167780940470
N           -1.80784850672086        2.14223712872294        0.94909368432366
C           -0.86687899547250        1.46836282795670        0.07359975416518
C           -0.85098823650280        2.18186467555001       -1.28747614778017
C            0.52871483959339        1.41119891746577        0.79527724511709
C            1.08297022501538        2.79535083278946        1.13317619059980
C            0.37065828126186        0.59503591395439        2.08280177011987
N            1.45158257849692        0.66743250506822       -0.05492077703514
C            2.18236993934576        1.16785091715676       -1.07199663923234
O            2.16192261189573        2.32064349795793       -1.47156747773296
C            3.04675222776072        0.13804407295865       -1.70270423762141
N            3.81579718188319        0.27531411081781       -2.73764517854384
N            4.40116569922615       -0.93522612244735       -2.95676767972538
C            3.95393874583196       -1.73822755854997       -2.04188633227861
C            4.29588501824583       -3.16247694454265       -1.83840646425767
O            3.09084543396819       -1.12208404002442       -1.21715335576182
N           -1.22266304911292        0.11331725598598       -0.20100493985799
H           -4.48850911276214       -4.07811409554320        0.95265332592178
H           -4.17119385242663       -3.90983678575100       -0.80314531208439
H           -2.84133616131588       -4.34462864471087        0.30222969401256
H           -1.52724263327530        3.04132144722253        1.30971334232223
H           -1.87297581351969        2.24021286192918       -1.65781820407787
H           -0.24668722543527        1.61905951403699       -1.99417455827949
H           -0.44908336992850        3.18596068559591       -1.18310594546708
H            0.51176176019871        3.22947055656130        1.95169444955172
H            1.04981715609999        3.47159681418043        0.28263921728608
H            2.11854131458518        2.69282018497946        1.45417261115642
H           -0.35057841314637        1.07468027153674        2.74201657812807
H            0.02314967219565       -0.41150789244721        1.85378678300037
H            1.32865415294315        0.53138321301321        2.59510054689801
H            1.54255175527961       -0.31586699772247        0.14921785620306
H            4.84943415965967       -3.28006003712636       -0.90671966918468
H            3.38673724099221       -3.75792284999686       -1.76619465973544
H            4.90470572814051       -3.51623912390432       -2.66702890246769
