47
 energy: -79.524520523525 gnorm: 0.000723575120 xtb: 6.5.1 (579679a)
C           -3.58879449191705        0.07536279994693        2.26562660504205
N           -2.37613354654968        0.13851096517522        1.43632435040012
C           -2.36842584240902        0.08973348601695        0.08625526038441
C           -3.55362697508316       -0.49746805610596       -0.69600232024815
C           -4.19896652940862       -1.68622522290513        0.04932358960478
C           -4.60474850850066        0.57298017063460       -1.02090898634342
N           -3.03003791318775       -1.02877577915412       -1.94941651951411
N           -1.25150517443984        0.46551773606535       -0.54520748513366
C           -1.26505994758147        0.88102542159631       -1.96128117742070
C           -0.03189285016364        0.62915557905430        0.10507115811903
C            1.22909672064212        0.72780537977372       -0.73145452813709
O            1.33894036720679        0.12533636098334       -1.78833452530093
N            2.18502473543606        1.49354434785724       -0.20241909069238
C            3.49157103327236        1.60652254606261       -0.85739791035356
C            4.38614934410096        0.46037742437883       -0.43836868397495
C            5.21004055821619        0.58533761340444        0.67734505091212
C            6.01654461612398       -0.47008976544732        1.07984761500800
C            5.97515726502612       -1.64279461562432        0.34739133972720
F            6.75156270959482       -2.66779126009323        0.72977361591117
C            5.16538232102418       -1.80143363592416       -0.76275667487382
C            4.36655226524715       -0.73592069707876       -1.15189625055686
C           -0.00411262923192        0.52827255370146        1.45877824170281
O            1.11915477527805        0.62918416377365        2.17502159601456
C           -1.22830529108006        0.34290284137535        2.21261101666871
O           -1.26382019855132        0.35775882030415        3.42650567900989
H           -3.70516626692525       -0.92590223216213        2.67541031003399
H           -3.44863675568898        0.77928137841594        3.08619900451440
H           -4.45630094774843        0.36768767945674        1.68920385149208
H           -4.99897117836382       -1.37690196935115        0.71590670168384
H           -4.63771834808614       -2.34445295081875       -0.69937134613116
H           -3.45330737589584       -2.25018799968856        0.60602941783356
H           -4.97846638414450        1.04679854062140       -0.11612506438432
H           -5.43864667055864        0.09835415066058       -1.53554018638984
H           -4.18720308647862        1.34194896808231       -1.66788799025674
H           -2.56254825898022       -1.90848543017671       -1.77304318914417
H           -3.80315104868530       -1.20525887449104       -2.57549765724034
H           -0.59264399595073        1.73092260507605       -2.05989255836742
H           -0.92904674490929        0.06398008908502       -2.59528217754525
H           -2.26609163952399        1.18363178027236       -2.24081224057780
H            2.06808255629824        1.92705571008142        0.69635341050294
H            3.32590463570134        1.59194874074173       -1.93829033049854
H            3.92100240898152        2.56668287827158       -0.56664693925835
H            5.22413950929980        1.51278937396592        1.23705364238109
H            6.66176049332475       -0.38675700279340        1.94496019097807
H            5.15998661441312       -2.73689664728654       -1.30688260767396
H            3.71952858659903       -0.83581207633885       -2.01536093009004
H            0.90774808423337        0.58074411060139        3.12649472217978
