47
 energy: -79.521119433761 gnorm: 0.000629999926 xtb: 6.5.1 (579679a)
C           -2.56988531460336       -3.72132665897373        1.76121126712538
O           -1.79589237020589       -3.20229895119273        0.65558758789806
C           -1.55574945542244       -1.89560707146146        0.52887516671222
C           -0.27039738956829       -1.41013424015147        0.81408987223779
O            0.67645808469233       -2.25643549419264        1.22742612138549
C           -0.04343805421789       -0.04217580261041        0.67310036777818
C            1.22630432325126        0.72477116478024        0.98590425556762
O            1.22494223161251        1.94485395982986        0.94588264515480
N            2.30115192085728       -0.00992393459144        1.29985091322589
C            3.57892019899173        0.62872881961599        1.61288314139136
C            4.46990465738231        0.68797920410816        0.39074758572410
C            5.66889406330334       -0.01877743141200        0.36102116448808
C            6.49347522292263        0.03543369658176       -0.75493564430980
C            6.08926605523722        0.80308907994266       -1.83163329468083
F            6.87793775475768        0.85864906904598       -2.91584266767693
C            4.90281553286508        1.51548104731396       -1.83633544869779
C            4.09326975728298        1.45358751609485       -0.71197072228890
N           -1.03998425248411        0.73132246994168        0.23634569838077
C           -2.22087330827045        0.27085145328188       -0.09373451574169
C           -3.23253911769288        1.29962020178770       -0.57966742284058
C           -2.51687822685401        2.63765126177584       -0.82423249168593
C           -4.31522441422400        1.48363674129746        0.49381802633780
N           -3.85117246216634        0.83386140366552       -1.81590157736770
N           -2.50402990866020       -1.05887915839881        0.05134283565664
C           -3.79275429291489       -1.64156842006106       -0.33007091897163
H           -3.58118010332611       -3.31340430066559        1.75706400344033
H           -2.59688730243207       -4.79860219558244        1.60938542331014
H           -2.07044964711510       -3.47935993165018        2.70102390426841
H            0.36848452593297       -3.17694184470036        1.22811351093654
H            2.27702906177903       -1.01381322638113        1.28539989320893
H            3.36530214481066        1.63865869241843        1.97849394548483
H            4.05411617365130        0.05076287394821        2.40843502496743
H            5.96462778686363       -0.61783827200545        1.21403689297284
H            7.42780725799376       -0.50946215396370       -0.78965758612372
H            4.62130746495443        2.10417087141027       -2.69984859565414
H            3.16116308080429        2.00561341220942       -0.69142336973484
H           -1.71575637981620        2.50798134490082       -1.55013702902826
H           -3.23484339568603        3.35687941506450       -1.21394229437945
H           -2.09422274724130        3.01997141117894        0.10401444722805
H           -4.97369839267236        2.30012479166376        0.20123007526956
H           -3.85602153512127        1.72465321735344        1.45167804779505
H           -4.91149971096385        0.58125333532869        0.60443355891848
H           -3.17925570036170        0.86532153870086       -2.57061179172880
H           -4.62431665988409        1.44075748324881       -2.05111974696937
H           -4.45557686772049       -1.63909839569271        0.53254481410521
H           -3.62081064943530       -2.66054180150405       -0.66818326596776
H           -4.21983764089460       -1.03947619130247       -1.13212580711791
