43
 energy: -83.124575684021 gnorm: 0.000377766486 xtb: 6.5.1 (579679a)
C            5.94708901061833        3.41817092911338        0.28401056238295
C            4.72409052427382        2.58800909284461        0.21670517593820
N            3.52179228964638        2.91365224327431        0.58736673568447
N            2.73154065410060        1.83318535313574        0.33466563133438
C            3.50080867293675        0.91783303260579       -0.17414183212180
C            3.08741665587406       -0.44549103276642       -0.59253020909023
O            3.85720234967492       -1.27766807016946       -1.03763229613369
N            1.76327461387326       -0.62355896960847       -0.40358571343973
C            1.06437516208867       -1.87008151882388       -0.68864269488031
C            1.63549778923941       -2.99182309472731        0.19220939547669
C            1.19328323214494       -2.21074855860323       -2.18205538872142
C           -0.39321917530614       -1.63662469192515       -0.35628180966604
N           -0.79699726724181       -0.46903197315745        0.01356178458525
C           -2.12904446083094       -0.24941080276589        0.29234553263888
C           -2.37295052386152        1.10004838798933        0.75117644652963
O           -1.62100023397085        1.95977018117774        1.05117958603062
O           -3.83892105740330        1.39724731102353        0.93389911421708
C           -4.07761822248315        2.44322911991492        1.92119983473916
C           -4.59102168230837        1.58724659713644       -0.30248731010619
C           -3.04023444399342       -1.27447820064391        0.19605275940492
O           -4.33167358653673       -1.15997424891495        0.45117225965170
C           -2.58887314996958       -2.61517067756998       -0.21054350659060
O           -3.35713110788041       -3.55166293073968       -0.30019256175406
N           -1.24859481584248       -2.69730891106982       -0.47606707112206
O            4.77391786701861        1.34054605668580       -0.27231127498642
H            6.73750845637325        2.87405088608286        0.80044270163102
H            6.29668367402213        3.64756481349009       -0.72302827841184
H            5.73190252697001        4.34432682135601        0.81154441575672
H            1.20764087315054        0.13671099068103       -0.03136689034751
H            2.68870191745435       -3.13699962541036       -0.04332959993369
H            1.10395414516206       -3.92219014263608        0.00626820403805
H            1.53447398174932       -2.72559508043494        1.24305316660021
H            0.80822437777780       -1.38963625610620       -2.78450729004185
H            2.24047738637804       -2.37870471764438       -2.42817387028563
H            0.62849357093531       -3.11285907079808       -2.40534087280830
H           -3.70242888029904        3.39493898024779        1.54545347269965
H           -5.15191434312523        2.47343455152101        2.08058946827192
H           -3.55563461536925        2.14190243037797        2.82631948510773
H           -4.24471056878518        0.84260878891271       -1.01249595988931
H           -5.63668185581651        1.42344972388135       -0.05362996339547
H           -4.41979553535807        2.59645991053921       -0.67626713409461
H           -4.76793290700519       -2.03091814755984        0.33834884168776
H           -0.91197029805527       -3.60444847991287       -0.77040504657930
