42
 energy: -83.620843176154 gnorm: 0.000903054856 xtb: 6.5.1 (579679a)
C           -5.87099620149469       -0.33922182227952       -0.82370589223877
O           -4.82931563034633       -0.58618234411363        0.06890375157741
C           -3.81499286155960        0.61313336682501        0.23383681413190
C           -4.36035988924853        1.37861804399263        1.49375826019228
O           -3.74723224373462        1.35099893200531       -0.82326180110534
C           -2.49026929739734       -0.15282542664146        0.60226952235975
N           -1.54160102887744       -0.06844214472461       -0.37430101665195
C           -0.40027151869549       -0.65371676436799       -0.25078215868658
C            0.63204089494195       -0.60255919620175       -1.35888876401705
C            0.33460567557473        0.56557200807023       -2.30297880569775
C            0.63340726364041       -1.92622955587951       -2.13406054316857
N            1.97958053208160       -0.45700645387873       -0.77830725415250
C            2.38084695110423        0.59763484342264       -0.04524961331026
O            1.68739975129438        1.54140213142607        0.29412791441755
C            3.81771714569379        0.46218376379097        0.32960584279772
N            4.58964430440687       -0.54708611565344        0.05071011223416
N            5.81595742750793       -0.26158132305965        0.57434256245885
C            5.71463953184818        0.90330764848340        1.13761207275620
C            6.77404965546542        1.65548819975250        1.84521754961543
O            4.47817487534289        1.41163891072405        1.01982677206126
N           -0.09878324554126       -1.41108049859311        0.86089428498487
C           -0.96191603231361       -1.56831318377759        1.91877510937618
O           -0.60122576930490       -2.27500969544942        2.87832765950248
C           -2.27776648746569       -0.86714633254142        1.79906533679411
O           -3.09271435223387       -0.96794197943496        2.76768978695971
H           -6.73064418685593        0.16950901231376       -0.34736792219803
H           -6.23413134582925       -1.29539824764289       -1.22568643638566
H           -5.55034298690521        0.28270807797089       -1.67934827290325
H           -4.67599575570568        0.70222254091330        2.28557587275484
H           -5.21150164955460        1.98250081927130        1.17819711595380
H           -3.58162630940527        2.04375877394990        1.86842068566083
H           -0.66266768364376        0.43462836585097       -2.72348331219041
H            1.06556627828327        0.59306493335534       -3.10840935339978
H            0.36230699269667        1.51028121502651       -1.76114146766353
H            1.37453399804746       -1.89886874335797       -2.93085533010349
H           -0.34859803897077       -2.09544031905958       -2.57383819706908
H            0.86728350059133       -2.75415361379563       -1.46683290072941
H            2.67570898576529       -1.13278395870649       -1.04360459639375
H            6.91204498381983        2.63207793024276        1.38222558009338
H            6.49285272047464        1.81178597793862        2.88675762328541
H            7.70605337920967        1.09784956470645        1.80148693893380
H            0.78853666729740       -1.87937534087774        0.91603746917115
