42
 energy: -82.979337220893 gnorm: 0.000799287384 xtb: 6.5.1 (579679a)
C            6.90980197272633       -0.05200730638598        1.73709294516501
O            5.69864024531137       -0.70772851628894        1.38479097321542
C            4.78105426159057        0.05186195653535        0.73865952729056
O            5.00800793087902        1.23000139885849        0.48982383641469
C            3.55182731014047       -0.64625279398065        0.38757766464903
N            2.65230044956553        0.16418371854142       -0.28032039893654
C            1.51590639656929       -0.28861039418913       -0.65165543091721
C            0.55640836355894        0.57960102950823       -1.43537700737404
C            0.48926495962738        0.08327970995184       -2.88643441315026
C            0.99722545371648        2.04343446621425       -1.36503995278884
N           -0.77758146769672        0.43869817056839       -0.80881716216122
C           -1.87763178931095        1.02743923402673       -1.28039911166427
O           -1.97719587300480        1.74538285500587       -2.25547886147260
C           -3.09544443497468        0.71120687995884       -0.45087955914933
N           -4.30626380833209        1.13846904655607       -0.64457524538137
N           -5.03223224644106        0.58686690376077        0.34528052993408
C           -6.45352768953077        0.85187795329907        0.43909000439029
C           -4.26131221553402       -0.15583178793613        1.11141754697469
C           -4.61040916081702       -0.93103888575562        2.31174723535202
O           -3.03524980943125       -0.09318977722644        0.63054064180585
N            1.13650546110317       -1.59877943041082       -0.41963947454808
C            1.92804420258391       -2.51378465722837        0.23249678198034
O            1.51364285666180       -3.65453504286827        0.41229947472797
C            3.28338714829726       -2.00964809524160        0.68114074748460
O            4.04502411941650       -2.80109699463391        1.26293744611275
H            7.53414885069940       -0.78626094909746        2.24529083018195
H            7.42361925691329        0.31702000899643        0.84383623611269
H            6.71206474612567        0.79236441855973        2.40467275516945
H            0.09905250911665       -0.93232208712890       -2.91470639062520
H            1.49209332921587        0.09078854555967       -3.31200392803876
H           -0.15327960419398        0.72643362934826       -3.48407500569888
H            0.33754539601055        2.66861522209327       -1.96273918650684
H            2.01517665428653        2.12610854265830       -1.74509382278313
H            0.97937752866411        2.38613744276836       -0.33152111778065
H           -0.85099901098870       -0.10703780983724        0.03353294449848
H           -6.66463083774605        1.31721964987659        1.39984448073531
H           -6.99455974384108       -0.08920821663909        0.35725602255980
H           -6.72268574282191        1.51865053387650       -0.37605591714663
H           -5.64507939035148       -1.26357086718547        2.26140894455877
H           -4.49095544302072       -0.30147516884367        3.19701752635592
H           -3.93829617848860       -1.78345840731828        2.40323162827760
H            0.22721404374502       -1.91403412833940       -0.70617273782965
