9
 energy: -15.745914090442 gnorm: 0.000896209955 xtb: 6.5.1 (579679a)
C           -0.95027274195637       -0.58817924247482        0.10673297449780
B            0.44226253884326        0.13015528233772       -0.07447542296294
O            0.61227770659997        1.49002370752823        0.02633460024615
O            1.54985398103658       -0.62725672469462       -0.33367355189593
H           -0.95349418197647       -1.57056726817230       -0.36357065699651
H           -1.16299907438213       -0.72797725263352        1.16681605309962
H           -1.76491877798513       -0.00067216502482       -0.31139003088340
H           -0.14468209711318        2.04128407064216        0.20745982573399
H            2.37197264693345       -0.14681040750801       -0.42423279083877
