42
 energy: -82.985668945627 gnorm: 0.000556360233 xtb: 6.5.1 (579679a)
C            6.60076364043672       -1.59670558684737       -0.06744440415898
O            5.43350824967656       -0.97923641612116        0.45978433512146
C            4.45254726711739       -0.70994354236344       -0.43216360299909
O            4.58865679064488       -0.98336560543416       -1.61746285531001
C            3.26457998518992       -0.08415592519418        0.14071446452474
N            2.28869125202947        0.16989933471907       -0.80151598768830
C            1.18889583883399        0.72928724519613       -0.46359010225927
C            0.13537453555491        1.05981542907340       -1.49832811498307
C            0.15697729420292        2.55953906381613       -1.80569873275610
C            0.35401166891543        0.23287238365863       -2.76659968810448
N           -1.19334732021380        0.75795144481458       -0.92911549716597
C           -1.51066459051104       -0.44383733247994       -0.44089263701030
O           -0.80216829108892       -1.43306702476845       -0.40447713981788
C           -2.89860760514041       -0.47678953921023        0.12318888712883
O           -3.67824271708672        0.59734116321198        0.18810797714178
C           -4.82011919311196        0.19575136705428        0.77507451018830
C           -5.91665421622683        1.15006432182945        1.00921693868742
N           -4.77529557488547       -1.06861849238367        1.07067836533842
N           -3.55977741747418       -1.48316072316384        0.65729237951394
C           -3.20018317969939       -2.87569111592528        0.82588022000710
N            0.92329707034119        1.10686252179182        0.83609813357871
C            1.78601439874425        0.88677450267834        1.88192927547694
O            1.46546436057087        1.22367731098762        3.01689775425261
C            3.10293732631035        0.23402292500080        1.51738675693134
O            3.92923691692245        0.02550417920549        2.42113570536218
H            6.35724542489888       -2.56984744912065       -0.50499206167450
H            7.29496837437846       -1.72739149311507        0.76193118422557
H            7.05666281452448       -0.96723714321093       -0.83801047355579
H           -0.61762153316223        2.80547913583254       -2.52916094485202
H           -0.01417127521317        3.13218394211833       -0.89577114860088
H            1.12688223965852        2.83318076749981       -2.21915582416133
H           -0.41347320736540        0.46642010741397       -3.50105014821786
H            0.31950021895535       -0.83065231537035       -2.53494804926409
H            1.33503409234438        0.47026795779502       -3.17697888075298
H           -1.88866567003376        1.48261121267536       -0.93425670297213
H           -6.75810414541276        0.64194612829023        1.47400663490285
H           -6.22537590280175        1.59253403620030        0.06159415891043
H           -5.56686424170854        1.95732278052811        1.65423533725063
H           -3.25296989164735       -3.11729937758160        1.88656589239511
H           -2.19415259194807       -3.02941165144253        0.44259039811694
H           -3.92037501456587       -3.48072447391877        0.27745020005376
H            0.04558481903949        1.54582694623214        1.05054648720507
