42
 energy: -83.614656047867 gnorm: 0.000320625159 xtb: 6.5.1 (579679a)
C           -4.37958777044983        1.99125735471931        1.74716319051513
O           -3.61965906113820        1.77674524181635        0.56649536376163
C           -2.66633200849560        0.80747591287223        0.63628874096924
O           -2.47202475712405        0.18190068664752        1.66998197872744
C           -2.02315240445564        0.52820014367984       -0.70923284160482
C           -1.89643038713765        1.78757980488205       -1.56914553032198
N           -0.70747944793860       -0.06025865448180       -0.51737991880232
C           -0.65227079441900       -1.30974294750966       -0.23081132963504
C            0.69449572314362       -1.94368934871756        0.10480966982827
C            0.62165532475840       -2.57946496497750        1.50417894735520
C            1.04077109133877       -3.00340257426231       -0.95520021161759
N            1.68703245534923       -0.88046972436976        0.08457665077163
C            3.01414742238187       -1.05424374150615        0.39560751178757
O            3.52194863017288       -2.17531404529422        0.62693672671907
C            3.77931276929422        0.16217415207727        0.41443207095333
N            5.08151413832299        0.29772368509186        0.66992776368327
N            5.35447136308157        1.63527867182922        0.59634491422674
C            4.24946658372370        2.24300473593555        0.31047010094110
C            4.05465942753311        3.70339055228052        0.13300114381662
O            3.19971401002204        1.39535738705283        0.17539989643697
N           -1.74091364699581       -2.12273303009396       -0.20593282932860
C           -2.93839282424633       -1.80362739140278       -0.94353346223482
O           -3.67868289188209       -2.78710886793951       -1.24678109582256
C           -3.08750885261247       -0.44822009384129       -1.29326656605487
O           -4.03088480453760        0.04269975759982       -2.00763540796577
H           -3.73197859303790        2.31276709945982        2.56909862988139
H           -5.10292944151646        2.77453493287597        1.52487989191262
H           -4.90338691688049        1.07797779580576        2.04863917492144
H           -1.32329811611165        2.55185157884938       -1.04629942761002
H           -1.38458901893080        1.54009563297212       -2.49907301153805
H           -2.88386557078769        2.18213760622414       -1.80657445268038
H           -0.13395295190483       -3.36274672901628        1.52215629021474
H            1.58171492291981       -3.01968755172533        1.76868980779303
H            0.36095796616010       -1.82145480826462        2.24274920490641
H            1.11147627607616       -2.53612937588289       -1.93730776548021
H            0.26911432805477       -3.77100466850972       -0.98432150439186
H            1.99291337960167       -3.47573551085407       -0.71806858001464
H            1.32981855065776        0.05902518963853       -0.05123526858138
H            3.29257518264314        4.07233447282521        0.81989950175081
H            4.99255949200940        4.21775088778868        0.32852393007034
H            3.73021541553677        3.92594193467591       -0.88411018994344
H           -1.60321519217343       -3.11217318895427       -0.07708070831416
