46
 energy: -86.338101993190 gnorm: 0.000659647794 xtb: 6.5.1 (579679a)
C           -5.19016575674954        1.37721603686831       -2.31146059632889
O           -4.13805425286898        1.23622865399571       -1.34218879446665
C           -3.45593503423288        0.10888773190042       -1.36075949519988
O           -3.66003090185005       -0.81210585822553       -2.10768761075848
C           -2.34036111521095        0.08385336201436       -0.32741212940040
N           -1.28491290399062       -0.50437452046346       -0.71256179034222
C           -0.14516456817108       -0.63137357578091        0.15395738005998
C            0.80716882891399       -1.72271389430036       -0.44603088922630
C            0.82296241402688       -3.07600308571246        0.25689698575618
C            0.53541439341386       -1.90260364480326       -1.94501398228053
N            2.09359725721185       -1.02183365613873       -0.33264197104690
C            1.91481824563191        0.25662795703982       -0.13039149026716
O            0.66128796664219        0.58912115811367        0.05686850935629
C            2.97089633246010        1.21315937143673       -0.08942005041466
N            2.92491753559865        2.50343040961670        0.11658933187916
N            4.18560681904705        2.94795747317975        0.06556902951491
C            4.95502445405904        1.91314829539866       -0.16900041236910
C            6.42137953525781        1.88845747048577       -0.30788866223526
O            4.23986240100681        0.79154865520720       -0.27772311144042
N           -0.52637682987239       -0.77561684155816        1.53396712534342
C            0.47585357493937       -1.15455097013700        2.54408419565689
C           -1.62807116027212       -0.13009488584309        2.03839051583429
O           -1.91714400494764       -0.20193981696854        3.21178075989488
C           -2.44661424481732        0.72798852120940        1.04444669155524
C           -3.87525280381960        0.89235789723857        1.55939545116507
O           -1.85114261961526        2.00679511980685        0.98937833900445
H           -5.69182720727680        2.31500994020502       -2.08500126520555
H           -5.88269531026771        0.53747725593304       -2.22982615300159
H           -4.76130685667008        1.40349461176384       -3.31467625717945
H            1.17554750581262       -3.84049475662017       -0.43357256982530
H            1.48438599392359       -3.07138529210314        1.11813040473148
H           -0.18656149802952       -3.33183246226152        0.57561809157975
H            0.49202727160211       -0.93438162344540       -2.44018348432817
H           -0.41262730242943       -2.41932161879909       -2.08388392471394
H            1.33630265636292       -2.49333946581325       -2.38448674358635
H            2.98651180586468       -1.44370872063359       -0.52605116810854
H            6.82624569436385        2.88685231017500       -0.16009306778419
H            6.84625431734661        1.20125698614791        0.42417012093170
H            6.68917121438319        1.52250464080188       -1.29957141714484
H            0.37421618657965       -0.47816976137080        3.39383797802682
H            0.30023358866786       -2.17555875824648        2.87883643843056
H            1.47108822508252       -1.05912513295306        2.12481804656312
H           -4.42551751482411       -0.03951853588202        1.44842694686891
H           -3.84074492219335        1.16517175534775        2.61371030836913
H           -4.37715405643623        1.68256239583587        1.00718371694506
H           -0.95311135365807        1.96893986834224        0.63366266920297
