16
 energy: -33.394333901951 gnorm: 0.000464331842 xtb: 6.5.1 (579679a)
C            2.44918457851799       -0.81786592153923        0.32177158989732
C            1.55613919296449        0.02941472104633       -0.48443592554014
N            1.87770445330781        0.80980919842650       -1.48895227952665
N            0.75927473674430        1.38978011093343       -1.91721585053134
C           -0.21773135075773        0.94570391344234       -1.16054663190432
C           -1.58878366658583        1.32573426483939       -1.29020257553988
C           -2.12583838479449       -0.65337095612731        0.98665287859359
O           -2.08870690396145        2.08132237072207       -2.04666013297062
Cl          -2.80571055513920        0.56483820335075       -0.13318193422776
O            0.24511116281576        0.07754725402094       -0.23609902133343
H            2.43635432220775       -0.48007482218685        1.35898581130501
H            2.09210088323335       -1.84776787498256        0.30671301796260
H            3.46300333579325       -0.76792870532105       -0.06930808568639
H           -1.41681435298280       -0.17669107131204        1.65669368786173
H           -1.65151697302056       -1.44762244145077        0.41842840161054
H           -2.98376947834287       -1.03282724386182        1.53654505002970
