42
 energy: -83.634276143775 gnorm: 0.000298787380 xtb: 6.5.1 (579679a)
C           -6.36658009700384        0.24855550755160       -0.67496118749218
O           -5.03152054526072        0.65076995041935       -0.89387399490434
C           -4.05309149127941       -0.30365278233345       -0.49061661592160
O           -4.46200793710535       -1.40256196933530       -0.05609194337203
C           -2.73958509613232        0.13485201894024       -0.64401981478550
N           -1.74648885566141       -0.77250619997612       -0.31174860293077
C           -0.50445765194033       -0.44143728369261       -0.44239943507965
C            0.54314223692987       -1.48947171190992       -0.05733277156891
C            0.74742156711553       -2.47025674341281       -1.22469534026689
C            0.09844777021565       -2.24142370776323        1.20238808203122
N            1.78806232432820       -0.76283458174574        0.19282685537519
C            2.93624048043171       -1.29182284056257        0.62362210540880
O            3.13134203724456       -2.47776295976281        0.89164730807832
C            3.98584016384372       -0.25152828286842        0.77248352475901
N            3.85937700921528        1.01734487696088        0.49868480366597
N            5.05292371136555        1.60832697901407        0.80539115044999
C            5.82812120986531        0.66988817749155        1.24603168024911
C            7.22631476677142        0.80355629690021        1.71386210900866
O            5.22194180978971       -0.53020158692747        1.25142777129272
N            0.00765187199739        0.73943105403969       -0.91327362180195
C           -0.82119339301117        1.70467987855416       -1.29324251755534
O           -0.41135645863747        2.80280292772945       -1.73134242215414
C           -2.37025230333818        1.51429983342852       -1.15412445763357
C           -2.84674251052743        2.63244366895574       -0.19707137391827
O           -2.92876579686281        1.75853198695375       -2.46326865210098
H           -7.01473952785607        1.05859123247248       -1.01361923538446
H           -6.61045275398663       -0.66362009722707       -1.23539508655835
H           -6.55865258574571        0.05958077389308        0.38964921386039
H            1.08289398087064       -1.93065538128403       -2.11060375009981
H            1.48952600919951       -3.22633873929310       -0.96990726989318
H           -0.19830150417006       -2.96324982047921       -1.44843685471180
H           -0.90537826453015       -2.63465865309502        1.03741356807611
H            0.07070042011902       -1.56080135707033        2.05343163743792
H            0.77187024232161       -3.06628326305006        1.42989712424159
H            1.75025831487878        0.22568043074425       -0.07416512654419
H            7.89573268326091        0.23711421935896        1.06690139950278
H            7.51547986069574        1.85131263110051        1.70264437900316
H            7.32209435074293        0.40972781172489        2.72499723526898
H           -3.93161649321848        2.63921975346628       -0.11299047299402
H           -2.41780731373836        2.47505807899317        0.79280519217838
H           -2.51959181899154        3.60102704961437       -0.57844054420217
H           -3.88679942220527        1.63827782347766       -2.40717404801525
