38
 energy: -79.613927928465 gnorm: 0.000381457106 xtb: 6.5.1 (579679a)
C           -6.75389541476074        0.21475819954788        0.34538513837533
O           -5.45493214496050       -0.31297192489002        0.62442497953523
C           -4.43070975523406        0.27342398753769       -0.03650248057356
O           -4.62350860422451        1.18057489342676       -0.81922950505721
C           -3.10217334856536       -0.28347213011439        0.29389756041060
N           -2.07898074945301        0.35390450808053       -0.35680511712283
C           -0.85649593160859       -0.05450820664412       -0.10151536153644
C            0.24902735678240        0.69746425706445       -0.83634521357975
C            0.11146084450203        0.44961525913853       -2.34462472048523
C            0.13612446647260        2.19471162654458       -0.52032087598273
N            1.52478502867689        0.17515014534395       -0.35442301088635
C            2.72764351073777        0.60736107689585       -0.74034644160123
O            2.94970326842962        1.48095715205759       -1.56829536280555
C            3.81513478476720       -0.11688255258216       -0.01781750942661
N            3.65888596028990       -1.06616951068229        0.85372746332614
N            4.90734285532772       -1.42867388814133        1.27062706911761
C            5.74331316302784       -0.67523792100013        0.62700912598768
C            7.21938232465373       -0.67044866949348        0.72995208343247
O            5.11748289743506        0.17362636434104       -0.20293348230028
N           -0.49075863494480       -1.03519144026783        0.71355477964900
C           -1.44132419958651       -1.73881703475848        1.39208104348812
O           -1.15038740194860       -2.66991100900470        2.15854427707301
C           -2.83564056463597       -1.31793914485151        1.16101359153272
O           -3.76565538418653       -2.01810571275851        1.85558272602359
H           -6.99392747496163        0.08578357221985       -0.71293889946281
H           -7.45979320218746       -0.33858680222577        0.96010803956452
H           -6.78971652749778        1.27810757963805        0.59546765119968
H            0.84467298500976        1.03392802944476       -2.89842886401271
H           -0.89021376388631        0.74034969692908       -2.65947749008592
H            0.25875402673693       -0.60705745679571       -2.56536184386114
H            0.86027307037530        2.76723479720284       -1.09741695256785
H           -0.86930096011646        2.53126248164874       -0.77150912183325
H            0.31089639005852        2.36682418724925        0.54124392176662
H            1.45079513027809       -0.56845234604785        0.34078291736307
H            7.56399738252805        0.29420659825037        1.10202470981535
H            7.66315497616153       -0.83044008979627       -0.25193454217810
H            7.54154200269162       -1.45552290237415        1.40910881786184
H           -4.66695736218566       -1.71085467013570        1.67670889983751
