20
 energy: -38.324836244164 gnorm: 0.000841657425 xtb: 6.5.1 (579679a)
C            3.50772148014553       -1.12986809908958       -0.15462119535475
O            2.10197161949382       -1.09337346467460       -0.04577716461223
C            1.52077437103620        0.17073285121415       -0.34943447469424
O            2.27627630652621        1.12159998056503       -0.68206067146579
C            0.18668833352136        0.25211832121690       -0.02928893258686
O           -0.64175129351212       -0.90517861199777        0.12927770894894
C           -1.84108765454408       -0.52456061601714       -0.31884677901878
C           -2.93980595998335       -1.53225281455505       -0.33345849903382
N           -1.96609264373242        0.68445817433824       -0.71440556436279
N           -0.67929997647104        1.31711054111545       -0.54520234650899
C           -0.85896027316488        2.40861757876201        0.42612349635444
H            3.83817149950207       -0.92861490879057       -1.18273736252838
H            3.83134290246888       -2.13293883266582        0.13160945761634
H            3.98462567370465       -0.39665825977720        0.50935351628567
H           -2.72564248914395       -2.31079619475582       -1.06639803702853
H           -3.02510341667060       -2.00354259345688        0.64438438790566
H           -3.87972314869636       -1.04990099411579       -0.58823380173588
H           -1.19759476064600        2.03351342265781        1.39729881811457
H           -1.59335663434621        3.10908572285333        0.03025959387615
H            0.10084506451249        2.91044879717372        0.54220784982885
