47
 energy: -80.234464481128 gnorm: 0.000848547563 xtb: 6.5.1 (579679a)
C           -3.38627316872822       -1.58593785340529        1.34991238032064
N           -2.18260810465381       -1.12327613200460        0.66402037821231
C           -2.10948419012988        0.12318829555631        0.03197330159975
C           -3.18420557330465        1.19280626136838        0.23007222873120
C           -3.00872158944531        1.84897215519880        1.60865293031235
C           -3.02072219940299        2.27051122901025       -0.85740645070939
N           -4.53251072097794        0.62564377464455        0.14309592735307
N           -1.07509037463533        0.49129254222044       -0.62847684707205
C            0.05929831293874       -0.34136536467189       -0.75293477233434
C            1.25146410737930        0.32764314919513       -1.23439697528268
O            1.32121001803088        1.54330433944488       -1.47791851565992
N            2.34293694713324       -0.48879619119980       -1.48326234184832
C            3.64939613245188        0.12265966289877       -1.66578930774488
C            4.26403718010182        0.49903363803506       -0.33214674397986
C            5.11204237022510       -0.38781722409172        0.32767864141715
C            5.65344819709567       -0.06669467657618        1.56563324284147
C            5.32468633929186        1.15369229552300        2.12531549881828
F            5.84622299318577        1.47604686067272        3.32589425858031
C            4.48722766335850        2.05995626091024        1.50083887084137
C            3.95700795198184        1.72128723573274        0.26405342928169
C           -0.02111451871586       -1.67244533351890       -0.37439898204065
O            0.89683239878425       -2.53222810360976       -0.29262110591430
C           -1.44243552472472       -2.18564348476231       -0.02155128091299
C           -2.15888229189968       -2.62485588491977       -1.32028393478523
O           -1.29371617934816       -3.29435413385339        0.82877063109210
H           -4.19440867580398       -1.82706080734623        0.65197329962460
H           -3.74055523502761       -0.82379465732681        2.04024980380475
H           -3.13508278776547       -2.47949754789682        1.92472353326471
H           -3.18548899155482        1.13351759648506        2.41028528455746
H           -3.71361957968955        2.67223822318735        1.72241304766933
H           -1.99588861166348        2.23998733137736        1.70635051626841
H           -3.09527536686702        1.81756925103445       -1.84580727588292
H           -2.04790473266903        2.75545811160248       -0.77022037081697
H           -3.80417426575884        3.01985661987424       -0.75328409334486
H           -4.73944186933560        0.39242188985318       -0.82026590117879
H           -5.20319871544288        1.32436182026601        0.42954132166200
H            2.35231887550011       -1.39767327077718       -1.03190852053599
H            4.29273266032608       -0.59127803407603       -2.18828851237247
H            3.53092895344108        1.01373079354540       -2.29202095962048
H            5.36343369555638       -1.33809228690935       -0.12937039480144
H            6.31922243455135       -0.74457715887238        2.08303994543698
H            4.26343789735820        3.00819050081814        1.97211255240065
H            3.29614555684279        2.41569362774659       -0.24416851582183
H           -0.34344561916358       -3.53730457516108        0.76320854655071
H           -1.52485910642437       -3.33832517776709       -1.84409143543371
H           -3.10696225866471       -3.10526902247156       -1.08587453869000
H           -2.33795743374244       -1.76277554499070       -1.96049779385272
