42
 energy: -82.997870430160 gnorm: 0.000846653716 xtb: 6.5.1 (579679a)
C           -3.34547030661014       -0.29226160876499       -3.28359818772214
O           -2.88141586255494       -0.11757021532951       -1.94353096206347
C           -3.76679014356351       -0.41134419796571       -0.96486727948600
O           -4.88624749086344       -0.80946976409122       -1.20518514280072
C           -3.20069859006922       -0.18944908156865        0.36388642524569
N           -1.89866281977278        0.28401982649918        0.40693995092137
C           -1.21672105860731        0.52516101478281        1.49361290259598
C            0.19934853324967        1.06742008981307        1.40224150662122
C            0.15882290758884        2.47937702253817        0.78920032265207
C            0.86154850863763        1.19571476713210        2.77863989694294
N            1.00445452538113        0.14313345435658        0.56832390234082
C            1.63044699699122       -0.99831438554188        1.23954710500603
C            1.01527599906024        0.23809923617616       -0.78579809199095
O            0.17720392678449        0.85692027615771       -1.43328276105947
C            2.13603153365519       -0.41479129978970       -1.50379269877994
N            2.18226835450068       -0.60833274197500       -2.78719271280018
N            3.41531364036829       -1.10444468962145       -3.07039487386492
C            4.05865135753058       -1.17198609787050       -1.94541362270072
C            5.44565774704171       -1.63335770911534       -1.72254255311897
O            3.30568170320162       -0.75274701463714       -0.91622041808054
N           -1.82854174377842        0.31908405573342        2.67764107481784
C           -3.13863944401569       -0.13226053430793        2.84231778020828
O           -3.57801423707848       -0.26276998493279        3.96534428394770
C           -3.91086030599823       -0.42809518667048        1.57016101688843
O           -5.06545103081811       -0.84349044324830        1.65919424466829
H           -3.66534622258043       -1.32563812086266       -3.44282674396808
H           -2.50881262073994       -0.05318330855564       -3.93724748547273
H           -4.18374323940294        0.38046703364241       -3.48419619092223
H           -0.21842407473010        3.17229724948856        1.53957002505149
H            1.16571477795239        2.77945770669134        0.50628463408170
H           -0.48981775625144        2.53414027055135       -0.08083149384893
H            1.89847677247670        1.49828991090342        2.64525337808292
H            0.35324972702366        1.96599032126396        3.35598172218746
H            0.83870778493104        0.26792044988655        3.34400845931391
H           -1.43277046563851        0.45668836998858       -0.48918120468762
H            1.77768564014469       -1.79913322752287        0.51989666671139
H            2.58817784153123       -0.71378472462898        1.67335655952781
H            0.96051078963483       -1.35934987096778        2.01800069503245
H            5.89990990681873       -1.89784543834408       -2.67461315269691
H            6.02704908316761       -0.84542170228866       -1.24405344906005
H            5.44837519663312       -2.50101414283574       -1.06291687588805
H           -1.33213784120371        0.50187443581365        3.53479934815275
