42
 energy: -83.006063276875 gnorm: 0.000453249602 xtb: 6.5.1 (579679a)
C           -5.98526799923959        0.55219165036121       -0.57579311346939
O           -4.89293921386244        0.26619807324368        0.31232946200127
C           -3.70133456719527        0.12197881464427       -0.22798221214095
C           -3.02647221677362        0.29953195685369        2.22954309884533
O           -3.45705578287498        0.19079352284439       -1.40294237596172
C           -2.61830966958237       -0.19716059559104        0.84255667374570
N           -1.42095458262800        0.48813791653384        0.41493949649174
C           -0.58208092643245       -0.07935594193372       -0.34887726367120
C            0.60771741627052        0.72110799088620       -0.86154454964445
C            0.58020748387593        2.11859886878863       -0.24052380384113
C            0.55381383095623        0.82765290608729       -2.39047064516607
N            1.86043870068244        0.09122093474963       -0.42304483461230
C            2.41258200266466       -1.02655524593982       -0.93003244795551
O            1.90782588062457       -1.75465697570512       -1.77418880102616
C            3.73668182685210       -1.32671533096348       -0.33542363757636
N            4.51876063372876       -2.32631837012219       -0.60077073304445
N            5.62058694362152       -2.18354917850545        0.18673554316989
C            5.44470786196234       -1.10518262568274        0.88531951904321
C            6.35394049912237       -0.51237283648748        1.88931352406515
O            4.27120426186782       -0.51540903296698        0.60337225540421
N           -0.68939202855001       -1.39228135759781       -0.77436084237511
C           -1.56748857206097       -2.29177692977127       -0.25828556223081
O           -1.58746823203197       -3.45746208479326       -0.58753397914935
C           -2.51674882421613       -1.71219801349281        0.79812215648901
O           -3.16435597733617       -2.42725970667387        1.51755110322962
H           -6.87642855331605        0.61057623711532        0.04460859206246
H           -6.08083707363089       -0.24528601646844       -1.31511726272847
H           -5.80786149126281        1.50250441339917       -1.08202179203958
H           -3.89777487944681       -0.24996515258756        2.58057563190959
H           -3.25836421796408        1.36089247592084        2.18693636628883
H           -2.20015411865373        0.14336535058531        2.92032044863918
H            1.43245072448143        2.69612370576736       -0.59238294457452
H            0.61653713509035        2.04979714026106        0.84532098590869
H           -0.33843585037666        2.62886641425947       -0.52476097225847
H            1.42420750591010        1.37752317092927       -2.74333411065692
H           -0.34817478691791        1.36658860776136       -2.67669155785154
H            0.54232238537138       -0.15280748830585       -2.86113628171037
H            2.38955798921705        0.60053564632682        0.26594926005093
H            6.65692108092919        0.48507748300554        1.57090480246295
H            7.23337661488402       -1.14122530777065        2.00701835257853
H            5.83907133184535       -0.41684401015003        2.84503468691426
H            0.01498445439147       -1.74740407880982       -1.41923223561975
