42
 energy: -82.938432232548 gnorm: 0.000648251987 xtb: 6.5.1 (579679a)
C           -7.16683673719490        0.65423652146632        1.12223402866214
O           -5.98219537430265        0.88425958832014        0.35856396854950
C           -4.94239355104571        0.09397142903543        0.62981743533597
O           -4.98481655108415       -0.77972800338389        1.47250713411437
C           -3.73463997281641        0.37925400096589       -0.18612975073426
N           -2.69869905096445       -0.44185095672450        0.09385486955462
C           -1.55894631304315       -0.31701863694698       -0.51744158038352
C           -0.44142368223524       -1.28877608719970       -0.22316243340828
C           -0.71036875368823       -2.02757524691798        1.09096214849690
C           -0.34399760812100       -2.27031796310523       -1.40280572150767
N            0.80234630634928       -0.51547422114611       -0.10947702576646
C            2.01260727359007       -1.08986629891948        0.07110438565985
O            2.24907105062660       -2.28218505351719        0.07866299017289
C            3.06398797141378       -0.05504306126440        0.26891403728529
N            2.83293871476092        1.27043919203383        0.28377653489732
N            3.94146223737054        1.87555411235291        0.50621696510270
C            4.98948247133978        0.89861157815375        0.65501625622804
C            6.04498513853825        1.07345956149530       -0.43996464253898
C            5.59148870496555        0.97145704998399        2.06098339638932
O            4.31840685953801       -0.35064723394736        0.48288106771262
N           -1.35107901232307        0.63116173701295       -1.47057073146627
C           -2.31176482667803        1.54490663942933       -1.87410852909615
O           -2.04998381121815        2.36586490489430       -2.73068979825940
C           -3.65209909117984        1.42151975854363       -1.17584994446864
O           -4.55953242924318        2.19155256542289       -1.48291880898720
H           -7.89975801992456        1.38883852893379        0.79384819113359
H           -6.95842721672514        0.77770939003218        2.18798578474978
H           -7.53953875843620       -0.35757649377129        0.94470231910371
H           -1.65995561883053       -2.55520319056180        1.01673994456350
H           -0.76389060546790       -1.31633063127330        1.91327432130099
H            0.08564430239527       -2.74331609837688        1.28408606557617
H           -1.30965320631817       -2.75211317761334       -1.54787375084218
H            0.40494100518338       -3.03204559986571       -1.19858082725121
H           -0.07182628068603       -1.73529721267015       -2.31006411419538
H            0.73708898697117        0.48553075859194       -0.00387569052051
H            6.78594615077070        0.28280213491701       -0.35085822167930
H            6.52312484210919        2.04245537353368       -0.32175619573061
H            5.56712255543467        1.01722616914639       -1.41530654886757
H            6.32952634659012        0.18104827542962        2.17490797650626
H            6.06524031767462        1.94045964354671        2.19517735300775
H            4.80247365334162        0.84352047069358        2.79884263934327
H           -0.45605841743205        0.69452578327257       -1.92900449774073
