20
 energy: -38.355909767943 gnorm: 0.000469894734 xtb: 6.5.1 (579679a)
C            3.80030676840445        0.70917404507640        0.41584952835893
O            2.39199934617576        0.60475095403156        0.30967503331681
C            1.91429714362956       -0.67676553346803        0.07378891314321
O            2.70223386394176       -1.63062697371001       -0.03353693955056
C            0.51543383223012       -0.74901511523963       -0.02389487076565
N           -0.18920214729632       -1.85587580278496       -0.25265040670947
N           -1.45547310453824       -1.60381677974068       -0.29418472291240
C           -1.63492067238735       -0.15916842729972       -0.06779688147242
C           -2.47532726694320        0.06332851573689        1.19965512623688
C           -2.31053077958192        0.47487324654217       -1.29410575916038
O           -0.32933416331434        0.37017942317833        0.10585191484224
H            4.29149275805234        0.38277181549831       -0.50827215684991
H            4.03243543073500        1.75867946271101        0.59896058536474
H            4.18001114667994        0.10164050814883        1.24575683781297
H           -3.45254877972028       -0.39919233499530        1.07753881573515
H           -2.60096571454502        1.12821125164701        1.38683645619700
H           -1.97021953598424       -0.39016750154250        2.05106080368004
H           -1.68362855519380        0.31949334739029       -2.17087035011715
H           -3.27890179441615        0.00791530205513       -1.46115304632264
H           -2.44715977592793        1.54360959676482       -1.13954688082750
