42
 energy: -83.583533629550 gnorm: 0.000707001919 xtb: 6.5.1 (579679a)
C           -2.94551875820321       -2.33942582840054        2.58851573642409
O           -2.47447767291550       -1.44827994282950        1.59866900547980
C           -3.36456873751522       -0.39094842594935        1.29492752332523
O           -4.43869883721810       -0.32553679744847        1.92950883624478
C           -2.91685447394371        0.46946057997094        0.27743293740718
C           -3.57541432476213        1.66374593827131       -0.11515374299467
O           -4.87189458634247        1.92753111725669        0.28977215388269
C           -2.95835351253201        2.65119672247040       -0.89740390345128
O           -3.56177614575484        3.70699738570119       -1.26698327734736
N           -1.60129260798513        2.44955365935158       -1.21500138608119
C           -1.03471164991240        1.31300239678741       -0.99631238005747
C            0.43828581881002        1.22370392495090       -1.41424233065979
C            1.12200078575995        2.55677685405246       -1.04753834172122
C            0.51084670680954        1.02069069579043       -2.93667166329513
N            1.07943253119255        0.12385053753164       -0.69636863218021
C            2.46535838898116       -0.09060862108162       -0.80740313022881
O            3.13260126356600        0.24320520508548       -1.81200694764875
C            2.97290314166756       -0.78205978947559        0.33135143132639
N            2.27642195247006       -1.11913126282411        1.42509699499195
N            3.15878518284859       -1.73160803720382        2.27262173471518
C            4.31184225410223       -1.74237081395767        1.68930477196480
C            5.57962794511588       -2.29781647204167        2.22615627539269
O            4.29535605566020       -1.16693270372836        0.46172912773199
N           -1.64480391073182        0.24011604589936       -0.37473264743208
C           -1.42880710453667       -1.11688655020395       -0.89423912919580
H           -2.18931055816169       -3.11544663903807        2.71922661347368
H           -3.10507994867283       -1.82740931678250        3.54651228996964
H           -3.89119866453222       -2.80806699620607        2.28724802831049
H           -5.09308623148967        2.78926580503300       -0.10848520361930
H            0.59651625278573        3.38206852925860       -1.52731494406566
H            2.15820729981758        2.55315532065581       -1.38244581217537
H            1.09796761527238        2.70594174799822        0.03215648006352
H           -0.12306177760182        1.76197180363272       -3.42345938904517
H            0.16410423040370        0.02615430448683       -3.21384392847533
H            1.53157584459940        1.14184219708847       -3.29521565883655
H            0.76916082954223        0.05996294658291        0.27085742611126
H            5.40288740908438       -2.71189514734553        3.21622867992733
H            5.96037941469444       -3.08205698287121        1.57123319731629
H            6.33913931898479       -1.51774957702285        2.29315375007513
H           -2.39672939719631       -1.60383145155749       -1.03154828426573
H           -0.91868274772634       -1.07859878929987       -1.85562588277354
H           -0.82907859443717       -1.71353357258959       -0.20445937858367
