46
 energy: -87.056185613711 gnorm: 0.000685907839 xtb: 6.5.1 (579679a)
C           -3.89501598183593        2.61152951152143        1.04641722376700
O           -3.15482463511280        1.44210913665893        0.70606650120776
C           -3.87333504450740        0.39147607509383        0.26277682958368
O           -5.08756708323072        0.43507740117961        0.17475816377046
C           -3.00593945731399       -0.76808608921956       -0.24786300710616
C           -3.78175784551107       -2.08375332573378       -0.10247735522328
N           -1.76616144844604       -0.85108667774145        0.50950651632725
C           -0.72917888389191       -0.19307133950916        0.12613900790145
C            0.43989568998660       -0.24470147627604        1.11755029526886
C            0.42243822580873        1.01797942822914        1.98536607180945
C            0.29689277095487       -1.47562844730024        2.02562511208603
N            1.73597899342101       -0.32170264753265        0.43741901021721
C            2.04910244181759       -1.30872358452249       -0.42372607026486
O            1.29487956743759       -2.19812523098720       -0.78662366540988
C            3.44179598660165       -1.20543268026586       -0.93569234314168
N            4.02200658548335       -1.97414126186936       -1.80538274693610
N            5.28891219549869       -1.49389266115435       -1.97238965142241
C            5.40230911456330       -0.46365336513304       -1.19540141767176
C            6.58453169066631        0.40542966933471       -1.00844390902554
O            4.27019098208106       -0.22453999539924       -0.51175297617695
N           -0.67378573782892        0.55726351527016       -1.00613338060762
C            0.46391979936284        1.35272252536491       -1.43838301269332
C           -1.64095285318330        0.29028093568380       -2.07790145625815
O           -1.34826070958762        0.68497204305604       -3.24428652428208
C           -2.74475894436825       -0.39432172387681       -1.67892767866330
O           -3.74740125793773       -0.74225107516027       -2.61629800275100
H           -4.63786774473633        2.38298174718631        1.81594092973511
H           -4.40577599650611        3.01288654875066        0.16652056075377
H           -3.18168308006840        3.34017328458663        1.42655684799794
H           -3.94174387646833       -2.30423724539055        0.95248465317652
H           -3.21314036208712       -2.89775989235865       -0.55063049144862
H           -4.74720265947375       -2.00454587868644       -0.60117592153712
H           -0.55141079080349        1.10666929220039        2.46613940861113
H            0.59953473572858        1.91280373353842        1.39286990141586
H            1.19106907647600        0.95515906556046        2.75373086983281
H            0.22914145711745       -2.38432131850302        1.42872735888963
H            1.15864839030955       -1.54340996187494        2.68720711332677
H           -0.60751155332896       -1.38401354124812        2.62469820432686
H            2.46071377340854        0.30504605351106        0.73823786533812
H            6.32536796132463        1.44052069762538       -1.22860868495954
H            6.92157259963918        0.35682282611473        0.02657165609103
H            7.38598785299357        0.08022265459487       -1.66711356430301
H            0.09380610419528        2.15185644732623       -2.08476485804935
H            0.97179627363029        1.80077727519883       -0.58969334623468
H            1.17905628769787        0.75263042813098       -2.01005335446872
H           -3.49427360998190       -0.32599087598463       -3.45310168279958
