43
 energy: -83.124726706235 gnorm: 0.000513964148 xtb: 6.5.1 (579679a)
C           -6.02324582128801        3.19870420531066       -0.67390546937155
C           -4.77662934996204        2.41852315291483       -0.51207881962452
N           -3.55546295908032        2.86250322091236       -0.51679711994291
N           -2.74798335218790        1.78000997838704       -0.33758412395519
C           -3.52704997266942        0.74533671894227       -0.23441432315753
C           -3.09845166017154       -0.66214814055589       -0.03417904895541
O           -3.87364250407955       -1.59550572556472        0.07184679180651
N           -1.75271102801196       -0.75139449386384        0.00587206423741
C           -1.02796062304886       -2.00308729498464        0.18429044712142
C           -1.38522157505447       -2.61773279107502        1.54681260990287
C           -1.36108596719852       -2.96392262721739       -0.96768518619910
C            0.44525532324907       -1.65962229266576        0.15307163508710
N            0.82524155510199       -0.43729131207922       -0.00333339521392
C            2.16683307454928       -0.12116826516321       -0.01435284812546
C            2.39092118807729        1.28345424440087       -0.27441557400118
O            1.64374419843431        2.13262729546226       -0.61392811471858
O            3.84143077360851        1.67493880624861       -0.15114394222723
C            4.17670151653029        2.83723244183407       -0.96525336652870
C            4.32775617917342        1.77392433077684        1.22128012674627
C            3.11629780478841       -1.10477322270474        0.13258544812809
O            4.42117938428636       -0.89798864963137        0.13596289070133
C            2.69517625981614       -2.50581616263893        0.29509368492915
O            3.49968537425101       -3.40747473904266        0.41815081472254
N            1.33818242129952       -2.68590585927531        0.29529648736237
O           -4.82301876655012        1.08992952350657       -0.33754712304359
H           -6.57501566043496        2.83981497883041       -1.54255491574622
H           -5.78224180160185        4.25088246569164       -0.80402747606459
H           -6.65708537298574        3.07418968255579        0.20389766136980
H           -1.19598813267018        0.09050360558326       -0.07619212262212
H           -1.15591107845347       -1.91170193560587        2.34306715834720
H           -2.44764172193307       -2.85531906264803        1.57022536540962
H           -0.81584211661121       -3.53073278905404        1.70495168277803
H           -0.79377719121002       -3.88540867042068       -0.86008042388245
H           -2.42363600361106       -3.20071573230131       -0.94814941557301
H           -1.11248816240917       -2.50033834267774       -1.92083097747603
H            5.25719907999123        2.94125374123975       -0.91872244853924
H            3.67331850500331        3.71913361148103       -0.56986368079253
H            3.84796026948885        2.61422072762364       -1.97741155740071
H            3.96404649238753        0.90314358582634        1.75775371446692
H            3.95879872791494        2.69638147874670        1.66856646957354
H            5.41315564626443        1.76337947749071        1.16342772555013
H            4.89046447494999       -1.75372099491729        0.23410000114386
H            1.01874357207077       -3.63831816963387        0.41276469373282
