47
 energy: -79.482612945284 gnorm: 0.000364329576 xtb: 6.5.1 (579679a)
C           -2.45361251811895        2.30098753822298       -1.05755531995059
C           -3.18370975861152        0.96070713246006       -0.86017591762067
C           -3.64033593086105        0.41516494676903       -2.22447032264981
N           -4.34545293373041        1.14408592047773       -0.00410292518795
C           -2.18402857327828       -0.03191507081891       -0.29071752348859
N           -1.01625484709860       -0.02757552577752       -0.77024477051718
C            0.01216085800393       -0.87778422784621       -0.41894539179599
C            1.30574019076801       -0.53705363569210       -1.12033044976224
O            1.34709649991436        0.37197846258782       -1.93251373696254
N            2.36961053997405       -1.28646058618599       -0.78776490413544
C            3.67931037472484       -0.98609646260280       -1.34843647738467
C            4.42339282053660        0.06160628455383       -0.54552001374179
C            5.53537806531945        0.67959115855210       -1.11585966117249
C            6.24885891108907        1.63873456075764       -0.41222790949828
C            5.82817672533002        1.96457224639859        0.86516709078434
F            6.50982567566141        2.89557407295453        1.55041957441709
C            4.73261561145139        1.36862194690697        1.46162374992301
C            4.03160896765150        0.40921354981444        0.74353652576088
C           -0.22960087017163       -1.88336620161399        0.46546989101051
O            0.68538677056566       -2.79180158982204        0.82594324952164
C           -1.53189834778126       -2.04841807241143        1.08232489120493
O           -1.81959743480909       -2.92435382860594        1.84711410007641
N           -2.57306275105464       -1.00006942130376        0.78314924229874
C           -3.83493282391380       -1.72536313523894        0.44514138029186
C           -2.72934754953531       -0.25748692340593        2.07592640227983
H           -1.61036738607837        2.17563058686853       -1.73605568613585
H           -3.14912775820590        3.02612471940082       -1.47529342030086
H           -2.08663117919965        2.66918669064724       -0.10114217992831
H           -4.22154397325369       -0.49569329031029       -2.09671129843851
H           -4.26141191852828        1.16236840515121       -2.71603922556653
H           -2.77560602574585        0.20074390202160       -2.85122501649950
H           -5.17269449377890        1.28834923428079       -0.56649131221805
H           -4.22734570622081        1.96368296508557        0.57656338823960
H            2.30666090558129       -2.01018528979688       -0.09388017894906
H            4.25440630907929       -1.91594495738023       -1.37200135557507
H            3.53949389955332       -0.63515882595945       -2.37658755340723
H            5.84738986492028        0.40955647893600       -2.11819939580812
H            7.11295926124248        2.12617673341812       -0.84493180693117
H            4.43301415581944        1.64679544076905        2.46343105142379
H            3.17031798047394       -0.06686259252265        1.19495538633501
H            0.33115675978725       -3.42271171522189        1.47563689195537
H           -3.69009384369853       -2.24226425781180       -0.49969680651055
H           -4.03152536682062       -2.43603576435180        1.24442685398843
H           -4.63468650797206       -0.99422277061412        0.37638490446454
H           -2.90009850361864       -0.99133800786859        2.86018610863012
H           -1.81822171955622        0.30470474450929        2.26348310667219
H           -3.58337442580616        0.40400543160600        1.98069677085036
