47
 energy: -79.452248858860 gnorm: 0.000192958491 xtb: 6.5.1 (579679a)
C           -3.69194238371497       -1.07874860182222        1.63344967873844
N           -2.58468282604494       -1.13930149288716        0.69084137735628
C           -2.04372989059176       -0.08122526614483        0.08304818268588
C           -2.76462330450786        1.24383680743373       -0.11300072873360
C           -4.00510030230569        0.98490231956984       -0.98076986259925
C           -1.83326677290941        2.23691846541976       -0.82126386079172
N           -3.18257191178651        1.78192741368988        1.17725291608715
N           -0.79250121122754       -0.14509436945402       -0.35516649715520
C           -0.07827422069531       -1.26173388112651       -0.33872103192484
C            1.35284677267940       -1.13630451159114       -0.55499089793085
O            2.14983193807042       -2.16036727187745       -0.46444045329952
N            1.82599392023507        0.01070655422062       -0.96302892059755
C            3.21289567667219        0.22207366282097       -1.38483453989063
C            4.03586802110668        0.75836522338711       -0.23375766703931
C            4.27028004093643        2.12608999617578       -0.11905360183923
C            5.03229903413289        2.62155874202650        0.92961367414094
C            5.54285581108738        1.72452473179647        1.85113054022336
F            6.28131261616775        2.19377603746205        2.86351434376479
C            5.32083849057117        0.36063262128603        1.76832541228167
C            4.55801086362417       -0.11938296384430        0.71418053811438
C           -0.58139162800134       -2.54132781635483        0.07507803667136
O            0.04454837611808       -3.57856748740193        0.04488313344117
C           -2.10203938490568       -2.52620694275388        0.51080384918627
C           -2.54766829308811       -2.87704200635807       -0.99572345640279
O           -2.48467562865366       -3.35006296000135        1.37295483588255
H           -3.32984459169323       -1.45647873120006        2.59208539236901
H           -4.04785473851687       -0.05855632196616        1.73597390986768
H           -4.48067638170757       -1.74368779969808        1.27787905063360
H           -3.71134870406814        0.51752967920510       -1.91959631296598
H           -4.70875791651208        0.33373252068195       -0.46567744623582
H           -4.49619998463696        1.93213449612805       -1.19763212151128
H           -1.53479326631632        1.84990561081288       -1.79391469504776
H           -2.35440040680346        3.18280791870249       -0.95820775049058
H           -0.94129106333882        2.40917251370422       -0.22212206019523
H           -2.36409310178161        2.06770131324826        1.69735769626083
H           -3.74956673517491        2.60336012628771        1.01460577228425
H            1.17966554214773        0.78809889506587       -1.00716793569780
H            3.60281655498326       -0.73688173575673       -1.73277887037475
H            3.18657861324818        0.93266644455640       -2.21236110565511
H            3.86090913581013        2.80846769464063       -0.85358750512843
H            5.22495447492184        3.68163569322017        1.03064419549581
H            5.73681602597188       -0.30814205303057        2.51084158788255
H            4.37033607949461       -1.18238883463680        0.62467318767231
H            1.63820427930240       -2.99568693905116       -0.27299455575767
H           -2.19901605728031       -3.88214815699135       -1.21537583082950
H           -3.63390359684831       -2.85164857066861       -0.95661545443915
H           -2.18364796417065       -2.16154476692494       -1.72436614850348
