33
 energy: -57.821352134145 gnorm: 0.000199269571 xtb: 6.5.1 (579679a)
C            2.27667023707285        2.25693810909948        1.44663625237739
O            1.65622514063714        1.07352662597547        0.88631292176244
C            2.28291683415810        0.46231225699785       -0.06585721494791
O            3.33665692151356        0.70624913504778       -0.55585337278374
C            1.41046857419264       -0.79798428970684       -0.60652111399791
C            2.09759367285810       -1.31110412304236       -1.87325867214562
N            0.13089501424565       -0.23480083922360       -0.88904589110029
C           -0.82839725750407       -0.33882538036622       -0.05031984164970
C           -2.16710992197964        0.31841716050001       -0.30577194910045
C           -2.03253359279474        1.79259667774527        0.10219004353943
C           -2.54102107890801        0.19264059597332       -1.78752428201483
N           -3.14290261657371       -0.32811532493114        0.56035359321365
N           -0.72701670862320       -0.99983337895971        1.15579943915373
C            0.35029916676362       -1.71524171873212        1.54531582583051
O            0.46261605791580       -2.36246187580275        2.56350523386697
C            1.45715490693947       -1.68664001167475        0.54090616889331
O            2.47063432510892       -2.43051291051263        0.76585724978211
H            3.18831066479003        1.96744431004848        1.97001574300880
H            1.54684272448273        2.67367778064071        2.13555405780178
H            2.50652746281592        2.95978869790536        0.64569383706179
H            2.12771455514031       -0.51005310638350       -2.60833849071975
H            1.52531396417117       -2.14635440901267       -2.26989695670652
H            3.10925870037287       -1.63553192562937       -1.63984116341108
H           -2.96264398593500        2.31654416949416       -0.11141040863796
H           -1.81909398343694        1.86512685708702        1.16732145519028
H           -1.22275484819583        2.26028517215329       -0.45604195051817
H           -1.77967629029648        0.67085892198492       -2.40267744706470
H           -3.50128832693752        0.67378491579854       -1.96267456684592
H           -2.61300889245290       -0.85701617210977       -2.06724753410071
H           -3.47935002128830       -1.17821643250526        0.12942988664978
H           -3.93320606837037        0.28249561118860        0.71210433802887
H           -1.58281366340926       -1.00855164819445        1.71466263114763
H            2.39671833352780       -2.93144145085497        1.61062317843576
