20
 energy: -38.329118123066 gnorm: 0.000731206305 xtb: 6.5.1 (579679a)
C           -2.90632865859968        0.86308000794058       -0.29708466386016
O           -1.54923669249845        0.49688421013439       -0.50502859839670
C           -1.19926483427851       -0.74820568314028       -0.08393709889912
O           -2.02755329571931       -1.51724283856510        0.39917043518656
C            0.30781110832387       -0.97016246606084       -0.02309125549193
C            0.69702521309185       -2.44204127835996       -0.17189604319620
N            0.47697868823840       -0.44367898971654        1.33104466328065
N            1.18766370768124        0.71948612088050        1.17325117359942
C            1.50155527157161        0.88493728897938       -0.05471902857480
C            2.30967133862386        1.98298642026092       -0.65072706915934
O            1.03926666198681       -0.13375865112288       -0.90170274050522
H           -3.18580740172073        0.75061635254589        0.75621057959532
H           -3.57069236688793        0.24066388857747       -0.90556448497406
H           -3.00781329468988        1.90582020469608       -0.59657806609602
H            1.73968989373826       -2.56795886267738        0.11260383900501
H            0.06929648504875       -3.04638762673857        0.48041814776482
H            0.56564508451297       -2.76446413645272       -1.20341177597197
H            1.72979061213637        2.54560181261422       -1.38548390461939
H            2.63176625963377        2.66069036325092        0.13820915066238
H            3.19053721980630        1.58313186295352       -1.15711325934902
