42
 energy: -82.912451850425 gnorm: 0.000297092414 xtb: 6.5.1 (579679a)
C           -6.64026515451013       -0.84390719325227        0.74763703389582
O           -5.28059075649015       -0.47757530292789        0.51696464212916
C           -5.07715665423824        0.59847517238506       -0.25094162832064
O           -6.00591795315378        1.23702669052486       -0.72648293148233
C           -3.65919597048162        0.92332607914807       -0.46570717748096
N           -2.72941464783803        0.12499126575718        0.14672782818956
C           -1.47125451752184        0.42651752615012       -0.07218367919078
C           -0.44963217597292       -0.46720296859774        0.62184671378223
C           -0.56006452319983       -0.29376186231634        2.14101839138087
C           -0.67462840402020       -1.92762473361208        0.21749181800558
N            0.86619511048757       -0.01352154185115        0.16340109100027
C            2.02207765752997       -0.55703575488809        0.49779299380961
O            2.21781846973326       -1.50558611978563        1.24412257931858
C            3.16715790345894        0.14488755255871       -0.17503641700607
N            3.16137933887259        1.17538264750901       -0.93087178504011
N            4.44710123477367        1.45174491241780       -1.31350652145352
C            5.23030717186699        0.59002440901201       -0.79142367934731
C            6.69119066707533        0.46300297026732       -0.90871977181418
O            4.47917555160043       -0.31128032175545       -0.02598623600964
C            4.91989546790136       -1.45793527968488        0.76614338314570
N           -0.98971957660667        1.41375887050765       -0.81810300216878
C           -1.84488874796404        2.26298371351776       -1.46414739272310
O           -1.43796605743771        3.19586918228945       -2.16988463844096
C           -3.27609654987846        1.98273321630297       -1.25823994414279
O           -4.15243778077805        2.79981412923566       -1.87951622758790
H           -7.14798570949168       -1.03410856277808       -0.20160191903448
H           -6.62323030086946       -1.74853763440625        1.35260334517248
H           -7.16290959931920       -0.04459343443968        1.27952484392741
H            0.13195594983069       -0.95949697426027        2.65337347254551
H           -1.57922021220413       -0.52944040207090        2.44584279441954
H           -0.33477661270084        0.73548999505313        2.41799460759323
H           -0.00637049827485       -2.58792806925625        0.76657692758288
H           -1.70744685849094       -2.19397935346440        0.44076183031633
H           -0.49858196964054       -2.05128111264917       -0.85032483358598
H            0.81934685020587        0.79342157068784       -0.46948583717103
H            7.15894462418435        0.50166530387091        0.07483349214077
H            6.95474406637946       -0.48654607656150       -1.37533570870980
H            7.06319854955721        1.28261554816701       -1.52081866405920
H            4.67943062322379       -1.24935160350573        1.80649749746599
H            5.98929052917924       -1.55300853334068        0.61022718020211
H            4.38150720045297       -2.33087985222722        0.40314054299815
H           -5.07096273522625        2.52084893226572       -1.67959701425185
