16
 energy: -34.154675261528 gnorm: 0.000252076066 xtb: 6.5.1 (579679a)
C           -2.63622111853485       -0.01067320343418        0.56530086461706
C           -1.22554348080539       -0.04850800934796        0.09993091682782
N           -0.84321598611693       -0.33177537385782       -1.07843773951649
N            0.57737498366093       -0.24444290714227       -1.10836505660786
C            0.96016428650992        0.10757939021601        0.29921798659402
C            1.93841224131672        1.23836312638156        0.49862061810028
C            1.32853083393993       -1.21412045347278       -0.26866457738557
O            2.43979198488577       -1.65455251851003       -0.58181365604011
Cl           0.13485630904327       -2.63586220142115        0.45497078617923
O           -0.25520909938310        0.25904335329310        1.00312723492890
H           -2.79557777184979       -0.77037898694228        1.33006409354560
H           -2.85646407293045        0.96075874022606        1.00502120471940
H           -3.30602148331799       -0.19323836704154       -0.27114837189202
H            2.20184874987215        1.31751508391716        1.55186849028795
H            2.83699934274652        1.03838540221486       -0.08215611726387
H            1.50027328096323        2.18190792492109        0.17434332290564
