38
 energy: -79.621662022356 gnorm: 0.000997328448 xtb: 6.5.1 (579679a)
C           -5.39235657860950        2.32755528846679        1.23268728854852
O           -4.29673077817962        1.51711165274248        0.83195320307757
C           -4.43002648398663        0.90196329462910       -0.38374009071699
O           -5.44094919073398        1.06676977705653       -1.04840122322450
C           -3.27397543933890        0.09116915531215       -0.72737193738784
N           -2.25637336035448        0.08610179722586        0.20875475786767
C           -1.19215873752128       -0.59601616419668        0.00954407527635
C           -0.08104415434550       -0.62667022172490        1.03775203710458
C           -0.32724124658379        0.44592616637944        2.10259037393319
C           -0.00906375091011       -2.02387852348943        1.67090279863172
N            1.17482473544558       -0.33957871878484        0.32596344596978
C            2.38587424864742       -0.33124236598678        0.91196089114630
O            2.61849443170797       -0.58157834417457        2.08256827191627
C            3.44467101167245        0.02400110598024       -0.07276170816153
N            3.25666005592427        0.33544601052133       -1.31974768699903
N            4.48589511534387        0.58180826823825       -1.85409565646890
C            5.34601980562512        0.40308339456683       -0.89841078199225
C            6.81766205744125        0.53620054963393       -0.97159514950590
O            4.75075155479542        0.05136455165182        0.25076490213979
N           -1.01178916003128       -1.35585018535361       -1.13149007213054
C           -1.93339223732545       -1.43813407162640       -2.14546016554655
O           -1.69412618139903       -2.13255101925406       -3.12976074352582
C           -3.20254707295296       -0.63851347330565       -1.94462995775481
O           -4.07543476615169       -0.67465135108937       -2.82923934601859
H           -5.14158555843188        2.74329455964530        2.20767751066290
H           -5.55746277770165        3.13958066206234        0.51689399948716
H           -6.30840402552347        1.73259349106798        1.30960275946666
H           -1.29314654146302        0.26801058079671        2.57341909580536
H            0.45299878185973        0.41260065625510        2.86013603110144
H           -0.33927244418390        1.43266737366815        1.64144635018929
H           -0.97566235220098       -2.27022153427789        2.10814240452484
H            0.74852040562630       -2.05121086549001        2.45142637761208
H            0.23718377056137       -2.76670575722719        0.91406435427474
H            1.12223971808251       -0.06673651915046       -0.64500597633459
H            7.17778538773738        1.16348742609251       -0.15667319693887
H            7.09840231016173        0.97412576083080       -1.92657542920216
H            7.28495278729514       -0.44466094839165       -0.87417608771981
H           -0.17019433999496       -1.89666345930180       -1.24007171910783
