16
 energy: -34.127314940413 gnorm: 0.000568137801 xtb: 6.5.1 (579679a)
C           -3.01960593952058        0.92291085344915        0.14817132806929
O           -2.06251160572092        0.44585534076673       -0.78346141647587
C           -1.46074349461804       -0.75848137939557       -0.41294615893190
Cl          -2.37627594888216       -2.20348350163504       -1.01296110239401
C           -0.07747815567829       -0.87576012041117       -0.49438716598534
N            0.65226815342750       -1.99605066986019       -0.47557980029976
N            1.96649213477891       -1.59716422851940       -0.29757998637227
C            1.97402404454346       -0.31562255274949       -0.21242868788940
C            3.14990477323916        0.57412567365907       -0.02071707921778
O            0.72734323127704        0.23306634452288       -0.32567571850759
H           -2.58966595183094        0.99143008370041        1.15532734298272
H           -3.89637559430323        0.26465362233262        0.18393976418378
H           -3.33063541050759        1.91587935350479       -0.18132714856908
H            4.03583732110102       -0.03190540766522        0.15623185716809
H            2.99360036982191        1.23849725874102        0.82942767487532
H            3.31382307287278        1.19205032955926       -0.90496670263624
