43
 energy: -83.866624659623 gnorm: 0.000522104799 xtb: 6.5.1 (579679a)
C           -4.86412501845966        3.38389425605222       -0.09697472395883
O           -3.90941451460673        2.32851722950388       -0.05785332812349
C           -4.07790165966810        1.34988835859984       -0.98375273779118
O           -4.99122718021137        1.38731680944262       -1.79251750617156
C           -3.06294715552133        0.30053002492509       -0.87853328864866
N           -2.11715369954420        0.45360364010209        0.11349079403680
C           -1.19611263327572       -0.43008890026521        0.27473235663195
C           -0.17550744557042       -0.26999565395086        1.38480131012117
C           -0.36083120043033       -1.40705507812660        2.40345887510175
C           -0.35885155369342        1.09511253559914        2.05671217734295
N            1.15269811078697       -0.35340755844701        0.77126836559772
C            2.30360640040517       -0.29282286271350        1.47445943368255
O            2.36386422541747       -0.07343503144530        2.67886950272083
C            3.58313081809549       -0.41722091911210        0.61505429257767
C            4.56974121597856       -1.37536471961456        1.29907030669755
N            4.14237055095990        0.92665366490610        0.48492780940929
N            4.15658700689282        1.20139540871119       -0.83856755353054
C            3.68334034946347        0.20731286817964       -1.50246673553775
C            3.53221207819078        0.09068990972045       -2.97554733626708
O            3.27853875520021       -0.85329092428816       -0.70363493728039
N           -1.09844809525139       -1.54710612600421       -0.51726339126695
C           -1.99729386876180       -1.81275708954809       -1.54157889107475
O           -1.90654403923321       -2.82950061613747       -2.23397689533898
C           -3.01501185976709       -0.81305202506404       -1.70812870879218
O           -3.90940569183085       -1.03437530420481       -2.70005696372734
H           -4.58987397712120        4.08931731832931        0.68581593623749
H           -4.84663815173661        3.88220418044299       -1.07095939826989
H           -5.87116552152015        2.99739718826186        0.08574345585746
H            0.33884466551359       -1.28714749850368        3.22886286079876
H           -1.37724083839981       -1.38614572826209        2.79345951168227
H           -0.18382860134706       -2.37005595203695        1.92860303072656
H           -0.19576822241316        1.89237705290995        1.33191727974235
H           -1.37500528034196        1.17377963659923        2.44021115850985
H            0.34202426091301        1.20765878408165        2.88168333575167
H            1.20640100743955       -0.68222793056166       -0.18159644214346
H            4.73704174883158       -1.04328652712854        2.32195034625371
H            4.16389812128812       -2.38477775831739        1.30519823829984
H            5.51211209517012       -1.36971232273710        0.75594792072835
H            4.05406264139210        0.91447278350197       -3.45906097302990
H            3.94701779523943       -0.85523251783277       -3.32575101457412
H            2.47956770392971        0.12134534072953       -3.26488603085842
H           -0.38943954630023       -2.24226820420233       -0.34914578669971
H           -3.67732279610298       -1.87313974209928       -3.13398765541499
