33
 energy: -58.574681073195 gnorm: 0.000758909888 xtb: 6.5.1 (579679a)
C            3.60746881285034       -2.20701834260342        1.10498565491995
O            2.36386596501996       -1.60741933721404        0.79387702043633
C            2.43119745056142       -0.25732648523351        0.45364115575103
O            3.54503211516476        0.31437517559121        0.46010756761707
C            1.20631114243179        0.33773182393825        0.14270401446853
N            0.04967892735055       -0.39826016409842        0.18305216463386
C           -1.08738687120419        0.13954654143224       -0.05499669172829
C           -2.38035021449006       -0.64447959819740        0.02030933715154
C           -2.13878364166183       -2.08545767516932       -0.45287599919481
C           -2.89286640597441       -0.64177067085789        1.46989996500592
N           -3.38000032617255        0.02541001750579       -0.81508496505532
N           -1.22342353533979        1.52248456913175       -0.28703194985613
C           -0.20194427243008        2.40158155641340       -0.31245932340588
O           -0.41052836532412        3.60957167450650       -0.41555796152222
C            1.21482786818785        1.80125634027797       -0.28045089957811
C            1.79071692007333        1.95997227527508       -1.71015797748865
O            1.99110068170813        2.59455342411948        0.61608324426014
H            3.41131527956583       -3.25388598409743        1.34199773853110
H            4.07832575989432       -1.72123721888862        1.96835441080217
H            4.29861208476429       -2.15103017678242        0.25516787158905
H           -1.35968132796758       -2.54646163391248        0.15554527509764
H           -3.05317716039308       -2.66995523798886       -0.36884878009977
H           -1.81529548500249       -2.08715600243555       -1.49334258321364
H           -3.10541632774344        0.37930573106105        1.78657737663223
H           -2.14017224673226       -1.06921903129360        2.13252608718818
H           -3.80652626679988       -1.22973402590851        1.55035563459645
H           -3.17618364990771       -0.14500247440848       -1.79129427849746
H           -4.29087576280862       -0.36778459664327       -0.62825492784004
H           -2.16380917189815        1.87373650055733       -0.39841558780534
H            2.81434852724549        1.58895401686626       -1.72973924293464
H            1.78602622570979        3.01172050986426       -1.99597542774513
H            1.19019196177083        1.39039071448622       -2.41764554785478
H            2.84740230955465        2.13260578470270        0.71694762514043
