42
 energy: -83.639058310287 gnorm: 0.000221238388 xtb: 6.5.1 (579679a)
C           -4.52717624130195       -1.35426062382261        0.47510504878409
O           -4.86726723745803       -0.05783122292250        0.89452393540274
C           -4.17753565354792        1.08915082498718        0.26763091328503
C           -4.34392230109296        0.99314086646693       -1.27058846014909
O           -4.79673306020260        2.22111874468148        0.72885127108726
C           -2.69170756520116        1.07630272566442        0.64353143275403
N           -1.88930609401545        0.17380869701703       -0.00700833760665
C           -0.61263405650714        0.19684799403240        0.30444186004537
C            0.28135329319744       -0.81409508628766       -0.41922914206567
C            0.01598303284370       -0.76194910947914       -1.92797019276746
C            0.01291673433904       -2.22429988956998        0.12578093558217
N            1.66003491934422       -0.42474711189686       -0.12914797985964
C            2.75730343312779       -0.98977335419724       -0.62233014436023
O            2.80374768848290       -1.94431171001865       -1.39151679981758
C            3.98818640624873       -0.29921973560662       -0.12576635499860
N            4.02996386664316        0.69128755697902        0.71136560272499
N            5.34657733034682        1.02058660348550        0.86969032438817
C            6.02054280553891        0.21013729877958        0.11694747201143
C            7.48744964960056        0.16258572339244       -0.07219851168811
O            5.22357139164144       -0.64916883215207       -0.53740027815055
N           -0.01058242395515        0.99612709467317        1.18419862135510
C           -0.74877907388293        1.92056785535868        1.87473763776185
O           -0.19590541172374        2.67837245239159        2.71044987044982
C           -2.19491020545530        1.96582236278496        1.57775213249326
O           -2.97545122613733        2.84311114264186        2.18382191076751
H           -4.90539220878984       -2.05365448141263        1.22876617989331
H           -3.44043875470292       -1.49962984299403        0.38345718112378
H           -4.99013230489615       -1.61444313421121       -0.48944567257947
H           -5.39580243708574        0.86369524641275       -1.52036819826817
H           -3.76364647105066        0.16724418984770       -1.67793850481511
H           -3.98922071463302        1.92497132447620       -1.70867036837818
H            0.31486955470735        0.20682341604546       -2.32811483410682
H           -1.05242393933216       -0.89722367141454       -2.09696614380019
H            0.56177510672009       -1.54543426542642       -2.45136801254187
H            0.23979442998261       -2.26514089605263        1.19119259171803
H           -1.03966609365352       -2.46476079378794       -0.02070805166430
H            0.62131279499600       -2.96302923644872       -0.39445564049785
H            1.72880914729722        0.35393673948044        0.53786057774136
H            7.73526092302272        0.35385591501142       -1.11590882781656
H            7.96172857405530        0.91199037735857        0.55608030910197
H            7.86712953435942       -0.82472451743176        0.18786596393930
H           -4.04967914186988        2.62621136314895        1.48626068352053
