42
 energy: -83.020237436349 gnorm: 0.000585192688 xtb: 6.5.1 (579679a)
C           -6.09640860655101       -1.07188177026104       -0.71991779756999
O           -4.86719668954785       -0.76455417983260       -0.05603627406880
C           -3.82720105531165       -0.48219214573307       -0.83653657465100
O           -3.89171068858105       -0.48333838029184       -2.04583208474823
C           -2.57175477046663       -0.15091820202995       -0.09421660506182
N           -1.55046801294188        0.19398924317460       -0.94081366164263
C           -0.40245269959255        0.52173477899537       -0.45993990438177
C            0.70967918087990        0.95942020881505       -1.38739007535401
C            0.75544644342298        2.49579633934923       -1.36607369253897
C            0.45438385017628        0.42806516984314       -2.80143391519860
N            1.96876013903887        0.41325291041349       -0.86864378827138
C            3.16765993486704        0.66740547569793       -1.43907853043071
O            3.36078539798536        1.42387511982529       -2.37498891209806
C            4.27547061920689       -0.07368165059467       -0.78582005129116
N            5.53332455546143       -0.05427791453308       -1.09905867031934
N            6.17000720639227       -0.88137320422221       -0.22280432252434
C            5.26164816281183       -1.35479871894001        0.57173032521856
C            5.44271018295651       -2.29246559790651        1.70081259656718
O            4.03954730054159       -0.88511958235362        0.26857097874607
N           -0.17593748445661        0.56046074353906        0.88378551797208
C           -1.11298361059283        0.22872796979249        1.84108206833860
O           -0.82011718794187        0.29456778617202        3.02585976378522
C           -2.40661318624164       -0.16638980756936        1.27401413832680
O           -3.43058791508839       -0.52877471211315        2.05741534473791
C           -3.33005493825918       -0.62870091639377        3.47820579105399
H           -5.97279937889063       -1.95681843008458       -1.34880244040144
H           -6.40942125376319       -0.22834719753400       -1.34000715242600
H           -6.83191293394657       -1.26162303308578        0.05897125560012
H            1.49468139434685        2.86211954996018       -2.07557241531965
H           -0.22357448057273        2.88831055845533       -1.63729543856643
H            1.01453210970993        2.84372212163193       -0.36798669197673
H           -0.52400891421632        0.76413881876779       -3.14187979941396
H            1.21896568723522        0.79712247111705       -3.48233668581341
H            0.47240152684678       -0.66069704518392       -2.79562923480323
H            1.92198003679870       -0.31521122298604       -0.17647321490151
H            4.83121690322342       -3.18136052184415        1.54789820346800
H            6.48973766475793       -2.57607142862615        1.77776979808773
H            5.12230905152667       -1.81996675717797        2.62939059700256
H            0.72389502073646        0.84496797514728        1.23973818904730
H           -3.12298443298193        0.34487172777790        3.92774028486994
H           -2.55662266324063       -1.34294225791308        3.76863810739210
H           -4.30433146573354       -0.98718729126679        3.81294297355418
