42
 energy: -83.625573187861 gnorm: 0.000342981066 xtb: 6.5.1 (579679a)
C           -3.04532441246057        2.23596713718384        1.64140614117008
O           -3.52863044429394        0.97229731338251        1.98319075391114
C           -2.43882271185103       -0.13469821283107        1.90744582753268
C           -3.10511472003208       -1.27238618529311        2.75789752774197
O           -1.29606720649252        0.26277735654978        2.36984791711926
C           -2.41704406842884       -0.56458377911992        0.38927244365555
N           -1.19323362562620       -0.40041509425719       -0.18641099602928
C           -0.98053060209472       -0.68626719202573       -1.42607765459962
C            0.40481652975483       -0.51046386465000       -2.02266148046042
C            0.40079811457805        0.59105717871460       -3.09351041960479
C            0.91974704020790       -1.83148914478741       -2.61296951717505
N            1.25235124114954       -0.10848580515346       -0.90181707065231
C            2.55827451340321        0.14795372367776       -0.97667242837245
O            3.24886766602295        0.09485961027551       -1.98784288905705
C            3.11524069977057        0.51822376441160        0.35786750830766
N            2.45706714419961        0.60772396505386        1.47099133981782
N            3.35448930633941        0.96886576122560        2.43341340730651
C            4.50278428373757        1.07592729980474        1.84420254654166
C            5.80044233583533        1.44113632593905        2.45421971115171
O            4.42188866788619        0.80502329311096        0.53221645201043
N           -1.99559483582119       -1.15235681169854       -2.23025943432998
C           -3.27411940752270       -1.37940905841828       -1.77033172745310
O           -4.12268677642358       -1.80531554561430       -2.57393757996832
C           -3.51653047623077       -1.08197441320561       -0.32434287693156
O           -4.67101601859463       -1.31315700623876        0.14812667398043
H           -2.84743914176964        2.33654568732955        0.55714658739268
H           -3.79845536798897        2.98563777750629        1.91479294023997
H           -2.11120157499403        2.48516748115079        2.17624511487644
H           -3.09447009295663       -0.96180565239122        3.80313779271523
H           -2.51074067310935       -2.18004145292912        2.65440636270215
H           -4.13102142897061       -1.46731040039406        2.45045765415923
H            0.08347620206407        1.53782455170573       -2.65762524718448
H            1.39598463484763        0.71099188017112       -3.51756414253988
H           -0.28803001831338        0.32063162086783       -3.89128012270895
H            1.91746380489505       -1.69745351837382       -3.02675107608185
H            0.25615422902517       -2.16127906345407       -3.40968516697730
H            0.95469173596122       -2.59953551191849       -1.84105141886135
H            0.75829287010929       -0.02841721752456       -0.00348813343470
H            6.21368861018880        2.31832994527972        1.95796755805129
H            6.51127235321488        0.62375412628729        2.33754932790760
H            5.66193951366239        1.65210056841593        3.51147395096779
H           -1.82365689287633       -1.35595343775867       -3.19899515683258
