43
 energy: -83.823741404012 gnorm: 0.000787343512 xtb: 6.5.1 (579679a)
C           -5.90761604155396        0.05765094790346        1.43713828185157
O           -4.55119347983031        0.19549408222899        1.04734014988323
C           -4.35283935210212        0.36101697633950       -0.33066296488095
O           -5.35513967851281        0.35898633200845       -1.09087288707499
C           -3.04160556246000        0.53110525486936       -0.75384026537833
C           -2.70218602060034        0.53401796219004       -2.17548022246849
O           -3.65872904764635        0.98612813169000       -3.07164467111652
C           -1.48898273156670        0.07326496036852       -2.61045707840954
O           -0.95237337526838       -0.03235715742577       -3.74129479432149
N           -0.65065521423281       -0.38564642403863       -1.47216104516612
C           -0.75867365270464        0.04268314067479       -0.22079043461076
C            0.42768969343302       -0.32383118449962        0.68307435899588
C            0.77760587477679        0.61520745780930        1.84308573511632
C            0.08989196100687       -1.72381105673711        1.22293186234349
N            1.59525371815108       -0.35600352331971       -0.20689932057749
C            2.79419668459146       -0.95504516886482        0.15976531314571
O            2.90812837129116       -1.83893433694165        1.00875332805209
C            3.88543435652433       -0.43570612842906       -0.64471326709730
N            3.79647643350221        0.52297832904461       -1.54539073335862
N            5.05513353668161        0.71309958704015       -2.03798205385602
C            5.83158524833502       -0.12106688147771       -1.42202575407921
C            7.29081963276108       -0.29638628733609       -1.61011687166126
O            5.16796093710810       -0.88101656478997       -0.52901711115154
N           -1.91905081894164        0.54852623642853        0.15750942021766
C           -2.10265434595609        1.30637525877292        1.39246584576586
H           -5.91961842679946       -0.04734427880961        2.52252185428335
H           -6.36176704964655       -0.82992809850620        0.98043406988560
H           -6.49316966232062        0.93874632860856        1.14957332512963
H           -4.52729422544913        0.90028043365003       -2.61003659069434
H            0.23262338918492       -0.78812468736652       -1.75670630073652
H            0.04385038867408        0.55835163173546        2.64201612723882
H            0.87726370175986        1.64349994783217        1.50172305823278
H            1.73728410056483        0.29699399745276        2.25077517615780
H            0.80117331490714       -2.01982217608109        1.99016592059658
H            0.11052381929097       -2.45516542398641        0.41675062354329
H           -0.90702823593721       -1.70528519092509        1.66201063400152
H            1.73519138694899        0.52083277253752       -0.69842077352088
H            7.50168918671068       -1.28440444605528       -2.02086038204574
H            7.80551878934633       -0.21283346136217       -0.65317703921662
H            7.66449153410481        0.46375033197567       -2.29229336941059
H           -1.26513146202012        1.98162204286584        1.54515906157607
H           -2.21027143296770        0.63461274494257        2.24366469883676
H           -3.00380424315556        1.90748658798529        1.29840008596779
