46
 energy: -86.343050844895 gnorm: 0.000918707667 xtb: 6.5.1 (579679a)
C           -6.19121246970927       -1.32318724273202        0.99469037697176
O           -5.03386753922582       -1.06875440500757        0.17859632458206
C           -3.97652378481990       -0.54701393826927        0.69610078410658
O           -4.03628177873421       -0.28306447425531        1.95549890488033
C           -3.00569607642517        0.29244062226589        2.77086015309144
C           -2.85405438118225       -0.32252949542213       -0.18955060814431
N           -1.71644870196365        0.24497226067071        0.33025173414659
C           -0.67105776586035        0.47303334223230       -0.40377188201577
C            0.50904717351967        1.15538107922492        0.27635020844282
C            0.31920166297107        1.17159092805616        1.79751959603365
C            0.61083800746604        2.59939204278685       -0.24029468183550
N            1.71383772146564        0.37603853133060       -0.02014037940673
C            2.96218907289011        0.77960409602955        0.34080474849232
O            3.25643527320064        1.87811206888968        0.76581640675670
C            3.94051070219297       -0.30960133828252        0.10915385209181
N            3.66337122941498       -1.51335183933662       -0.29602835481476
N            4.84504581812749       -2.18489214970533       -0.36677702913700
C            5.76963854404218       -1.34781031236568        0.00033277600598
C            7.22585791948062       -1.59024192813938        0.09507702029952
O            5.25916976946417       -0.14809715727447        0.31378845726613
N           -0.64022859179641        0.16635927782026       -1.74079193096609
C            0.47669808029659        0.40734919147185       -2.66441634067728
C           -1.72681604005964       -0.39911421201271       -2.37042416735545
O           -1.73756391234703       -0.67403742255254       -3.55953292942286
C           -2.89454607906561       -0.65632850922069       -1.52766244638056
O           -3.92723970765118       -1.19658920480785       -2.14110122865944
H           -5.92789321866492       -2.02086748618397        1.79015890703011
H           -6.93568913440651       -1.75262764697804        0.32815095975214
H           -6.54458526954324       -0.38606754888317        1.42570238641055
H           -2.12329569495751       -0.34643327550299        2.75789553874824
H           -3.42836022215436        0.34899974366271        3.77341241252205
H           -2.75401182625389        1.28571938027367        2.40131756758882
H            0.17630824830828        0.15959157762209        2.17078319617683
H            1.20361256783289        1.60319413978121        2.26408563761915
H           -0.54626131276683        1.77671772344380        2.05641692510594
H           -0.36653976458373        3.07164443011325       -0.15321020858565
H            0.92590929429270        2.63111651808577       -1.28017661944077
H            1.32570555089357        3.15863849484608        0.36041105394507
H            1.58657255209245       -0.61434650613945       -0.16936602305023
H            7.44606979254078       -2.61718049979363       -0.18722282125365
H            7.75921902625718       -0.90623161169497       -0.56527546455539
H            7.56650343106606       -1.40904407054719        1.11470581289217
H            1.36722429302631        0.70644550336233       -2.12749395411439
H            0.17511924667248        1.18150853415340       -3.36970601315900
H            0.66243044697739       -0.51839555973920       -3.20927031857461
H           -3.70834515232165       -1.33204265128230       -3.08773133941844
