33
 energy: -57.847676957259 gnorm: 0.000518044068 xtb: 6.5.1 (579679a)
C           -1.58391301407772        0.91883014291721        2.11412908967144
O           -2.54922922558740        0.14199796416407        1.38254978571824
C           -2.37322185861964       -0.46519989540710        0.25877937139089
O           -3.40251621769715       -1.05175060228714       -0.24410762433117
C           -4.67117772575890       -1.00030779066062        0.43314382470743
C           -1.13061998742408       -0.53661433575835       -0.47835355773685
N           -0.02981206584171       -0.00568796067665        0.14562463724996
C            1.12846030605728       -0.01815873572724       -0.42469555172428
C            2.30220814630167        0.60156809808253        0.30100929950528
C            3.60868342991684       -0.16009793336494        0.03092789941281
C            2.41849856603883        2.06378835348500       -0.15706409833375
N            1.97809728359244        0.58966530478990        1.72264839227402
N            1.30151070933329       -0.52667933428490       -1.68154993191026
C            0.28950279373754       -1.08845768390653       -2.41414254590658
O            0.43635366250632       -1.54497252244013       -3.53200864790969
C           -1.01581226321833       -1.09698035759279       -1.73439930823828
O           -2.01390352294545       -1.64096224138325       -2.40222312773660
H           -1.21406051284351        1.73280762243333        1.49119336423505
H           -0.74820114684684        0.29212059730404        2.42421374960983
H           -2.12318929783365        1.30564077956662        2.97806197691234
H           -4.99409736634858        0.03781616437592        0.51933978150056
H           -5.36030296047478       -1.57435588598767       -0.18233674328767
H           -4.57302580344882       -1.44071549340471        1.42587805461918
H            4.38509777399840        0.22306828385836        0.69098589714400
H            3.47457929819373       -1.22243831765057        0.22707201176250
H            3.93509759301822       -0.02310783969410       -0.99905916462237
H            2.56540973618310        2.11304195035783       -1.23470758637269
H            1.50888294249686        2.60215845612645        0.10691836283173
H            3.26617136865831        2.53304274507251        0.33951925789408
H            1.96726163962596       -0.36724834661302        2.05200804365106
H            2.70111568338132        1.08446084389527        2.22847297122297
H            2.21358565818400       -0.51403444104774       -2.11650073076356
H           -1.69743562225634       -1.96223958854212       -3.27133015243756
