42
 energy: -83.619125107269 gnorm: 0.000203867118 xtb: 6.5.1 (579679a)
C            5.31155199326616        0.71170028449464        2.61685476395942
O            4.33027104073536        0.45767143007930        1.62555530116146
C            4.67861065683897        0.81042751540092        0.34458263752695
O            5.77801418162380        1.30122437018267        0.12606870895769
C            3.62570037394959        0.53874559364397       -0.61391596708014
N            2.47738470958542       -0.02852698528759       -0.08532737683356
C            1.47288006660935       -0.28113669795565       -0.84051483066404
C            0.20516880026557       -0.91513141286364       -0.31013667481039
C            0.15540569496994       -0.77653559739131        1.21957637613851
C            0.18261330182919       -2.39806407009920       -0.71288721988584
N           -0.92941946609407       -0.23285549434437       -0.97159568372972
C           -2.22496568712248       -0.60894666498685       -0.41803755162957
O           -2.92147805330992       -1.60553760488637       -1.12280572394213
C           -3.56133932285580       -1.17746066820675       -2.31866866856058
C           -2.84908243137836        0.32153218025435        0.37562828280640
N           -2.22662728190547        1.36387112142735        0.97633433719079
N           -3.17552193048508        1.95423786387004        1.79047891898516
C           -4.26826776211650        1.29082284246446        1.66900744563375
C           -5.56329719521323        1.54434024525839        2.35680776799149
O           -4.16687549169255        0.23358188148212        0.79329566091246
N            1.49157479225188       -0.00093438184037       -2.19205101618853
C            2.55754969016284        0.54314066496144       -2.84861353439348
O            2.49178927760883        0.76000738220393       -4.06041389500424
C            3.76664865580954        0.84894099464946       -1.99245196999348
O            4.77546499940282        1.34372998865350       -2.53445099987521
H            5.56038247536516        1.77763569682498        2.65704721105365
H            4.89227709297971        0.39827119170738        3.57233103042135
H            6.22708653064880        0.14585674672485        2.41498239189506
H            0.02883627258787        0.27151974943072        1.49613486155605
H            1.08200451754232       -1.15077203590784        1.65502788411520
H           -0.68221749654261       -1.34772597823192        1.61873283692531
H            0.24082403334934       -2.48855331651298       -1.79749668848828
H           -0.74531949988947       -2.86002241407340       -0.37631889226952
H            1.02493264794402       -2.92671341787428       -0.26713184756800
H           -0.81585898662123        0.77171481502232       -0.80582945439446
H           -2.83386802934840       -0.77849933855173       -3.03892022853656
H           -4.05529389505578       -2.04779565130460       -2.75720639074519
H           -4.31481531976320       -0.40472807825082       -2.11380044899789
H           -5.88367528111481        0.66300115447991        2.91451077141587
H           -6.34548198887862        1.78705620897193        1.63560517629315
H           -5.44692704585893        2.37851958918022        3.04607394192189
H            0.65336335993580       -0.18761170279576       -2.72605924327531
