47
 energy: -79.474667131729 gnorm: 0.000180737731 xtb: 6.5.1 (579679a)
C           -4.20858212604458        2.30486747004897       -1.16847082312797
N           -3.08200627395644        1.42900452976447       -0.83239002750187
C           -3.21063934217805        0.27585210775829       -0.10229301841825
C           -4.54928466274915       -0.18425718806143        0.46156256936614
C           -4.82873794921889        0.56651907270011        1.77136166251862
C           -4.47920913609158       -1.69617819971730        0.74438064080853
N           -5.61982972910706        0.07136015001036       -0.48682670395226
N           -2.19007237633250       -0.47065021960675        0.18989307443342
C           -0.93747185303490       -0.16784543603733       -0.25268730794573
C            0.14545531347790       -1.10307727830670        0.18145559671441
O            0.09450732734620       -1.76007889264771        1.20690743248393
N            1.20904819654482       -1.16149238226082       -0.66253676992370
C            2.35219327875372       -1.97837586897649       -0.33506933999025
C            3.60861740127706       -1.19397298408928       -0.23358373018182
C            4.84998319471280       -1.88073670588918       -0.26131506361534
C            6.02377179781728       -1.20507890845928       -0.17061201481277
C            6.02955862698610        0.23969733920517        0.14679759610970
C            6.30040863948704        0.34629173507902        1.68207902321843
F            7.07175838744243        0.88624905629590       -0.45817477912605
C            4.74339841940456        0.93149230173414       -0.08858249907498
C            3.58918919557133        0.22122937241190       -0.18055008882025
C           -0.74112818917068        0.95524988755231       -1.00019169962875
O            0.46318293860859        1.34927489122768       -1.46716813272296
C           -1.85306138226851        1.82553494517046       -1.33003537117828
O           -1.69816463696620        2.84129830980768       -2.00183423345997
H           -4.75815033647831        1.88347209077745       -2.00870639282861
H           -4.87220728254751        2.40806529688708       -0.31623813919073
H           -3.80678064629052        3.27962795691674       -1.44428442750522
H           -5.75075644606970        0.19394154581811        2.21529346404120
H           -4.93386234336980        1.63559751617045        1.59615748668044
H           -4.00919690564176        0.40438869543270        2.47045316069659
H           -3.73090745148361       -1.90060921572924        1.50876916188203
H           -4.21026984232074       -2.23337299503393       -0.16346618631572
H           -5.45112658906972       -2.04362563042123        1.08954548431753
H           -5.55848546082255       -0.54993686183484       -1.28034448178759
H           -6.52244085294879       -0.03289268256757       -0.04855417102464
H            1.22730490393217       -0.64413538848952       -1.52411981899369
H            2.14688273523356       -2.45187922628356        0.63820986524757
H            2.47271559845460       -2.78875847533046       -1.06301343048685
H            4.84701389213697       -2.95433018697433       -0.41140530962822
H            6.98210485958075       -1.70502607187975       -0.24126053950988
H            5.50592158776522       -0.13324953894121        2.24635936764915
H            7.25199895540900       -0.13709713734069        1.89083562266154
H            6.35898664227406        1.40116817655054        1.94011169163182
H            4.75399386337405        2.01465815529906       -0.09431180597110
H            2.63612716328779        0.73165317332473       -0.27009167492301
H            0.33824789528228        2.18016469893900       -1.96720291881494
