43
 energy: -83.186176616111 gnorm: 0.000876375043 xtb: 6.5.1 (579679a)
C            5.81264153740706        1.83343765416623        1.70001538733501
O            4.66197041069791        1.16170180043162        1.17700697641478
C            4.81650458190419        0.54806225667419        0.00293263493882
O            5.85740124166571        0.54432741685686       -0.61046234280242
C            3.56102230644373       -0.12465296605513       -0.44478546246711
N            2.46843591871546        0.02569238227601        0.37714017336173
C            1.34920594953346       -0.52600984674914        0.06741033792598
C            0.17130719510107       -0.40409159711680        1.00838803609249
C            0.36859212050493        0.78299598689980        1.95405810061597
C            0.03206962053890       -1.72531053233578        1.77812078801768
N           -1.03516599651544       -0.17838047952398        0.18730293049752
C           -2.26113092681450       -0.10315508162162        0.71126305145567
O           -2.58228355569426       -0.23202810781409        1.87458967923707
C           -3.30776034864653        0.16334542459168       -0.33620042828445
O           -3.02697985731600        0.31284896367501       -1.62195702889069
C           -4.20452694663116        0.50722084349387       -2.24133179364019
C           -4.26692272948982        0.71597711695598       -3.69684213132335
N           -5.18711524853512        0.48307996395545       -1.38773904559167
N           -4.60871929738135        0.26400173835735       -0.19404422276479
C           -5.43684735588772        0.19448455544208        0.99247044452514
N            1.19331800416160       -1.29245325748603       -1.05560517389772
C            2.21030079366469       -1.50701098585859       -1.95894189026011
O            2.06700739493293       -2.18292710678631       -2.96418827040038
C            3.47051080615939       -0.85866168028446       -1.59682818678706
O            4.48275768468059       -1.04574694012399       -2.44525938632682
H            5.50436284094174        2.29288217073416        2.63686824293025
H            6.15411118470351        2.59665670155745        0.99638360743884
H            6.61803891771672        1.11573222032209        1.87546919707880
H            1.29678653326968        0.64724189480567        2.50756794563129
H            0.43073279721101        1.70614033514410        1.38037168227618
H           -0.46223674470114        0.84735739429896        2.65322239388618
H            0.96671136951840       -1.93495895409751        2.29637267072055
H           -0.77105413361009       -1.65622715518508        2.50831688891659
H           -0.18293719990714       -2.53653996350957        1.08587658637493
H           -0.92297799509236        0.00874879386381       -0.79503548114557
H           -5.30207636594035        0.69025904897891       -4.03101917015405
H           -3.68453709373883       -0.05420172606688       -4.20323027457199
H           -3.82649364620882        1.68386838729627       -3.94444565674211
H           -6.34776556213682       -0.34259782431558        0.73665924968047
H           -4.88419294698478       -0.31531414261231        1.77769166505216
H           -5.67951482991913        1.21126407849663        1.30168926007877
H            0.30883686063699       -1.72484141320122       -1.26317870100549
H            4.17861171103721       -1.59221236853103       -3.19194228342568
