42
 energy: -83.590503736190 gnorm: 0.000674900826 xtb: 6.5.1 (579679a)
C           -3.81679673325151       -4.00754126726025        1.20399119237440
O           -3.70899737649795       -2.62345730737331        0.96178171629926
C           -2.38809541901113       -2.16001644843585        0.76316411513739
O           -1.45115998489293       -2.99322648898583        0.83787012998889
C           -2.27986402483492       -0.78430054476064        0.49719884860731
C           -3.34584302887488        0.18328846549112        0.41264439290868
O           -4.66652521363848       -0.18507280996239        0.62119066285897
C           -3.03257949426768        1.48122246277342        0.12331389396509
O           -4.06807890290025        2.40551003983613        0.04163719923698
C           -3.68169387428771        3.74058178297133       -0.21329571954558
N           -1.76478769132274        1.92932975709742       -0.08755720262957
C           -0.81311475804004        0.97399263435950        0.02110468025381
C            0.60680265611985        1.48522737962967       -0.23161343503007
C            0.87085267464862        2.69866786368430        0.67490821118739
C            0.69897620428886        1.90435362999597       -1.71217982923165
N            1.54424562558750        0.41847297698013        0.07760539601349
C            2.90160383206810        0.50118988501612       -0.18059804200898
O            3.47852227462545        1.57882972033217       -0.46682219252972
C            3.56044344216013       -0.75847598948874       -0.02218041942482
N            2.98591208919092       -1.92954990185298        0.28130108602705
N            3.99108008241204       -2.85640135919296        0.32100383871589
C            5.09567475387869       -2.24325775061496        0.04996887527425
C            6.45483033468167       -2.83756821092244       -0.01570991906469
O            4.92856952526848       -0.91668062802423       -0.18257452138170
N           -0.98065138504387       -0.28805943643219        0.28334583388373
H           -3.42684693068576       -4.59727098495044        0.36263071635847
H           -3.27362999054461       -4.30466434576961        2.11190753557565
H           -4.87656575366780       -4.23517673236368        1.33482616480899
H           -5.22113101837028        0.60020479979167        0.54280735624120
H           -3.01962326757085        4.12166237651658        0.57489941705192
H           -4.59364455492759        4.33873442891748       -0.23994032492881
H           -3.16113942788984        3.82820371197769       -1.17554309946387
H            0.10402033181451        3.45277866433262        0.49928580301091
H            0.83289129844042        2.39724415428000        1.72250838788697
H            1.84830114174073        3.13214434875420        0.46645933877903
H            0.57064743161561        1.03424214692702       -2.35698949309479
H            1.66105733610268        2.36812036759768       -1.92737095218286
H           -0.09501805000942        2.61948513865441       -1.92713430733286
H            1.13286155800586       -0.51428901338050        0.10655531565117
H            7.11353515117221       -2.36464166914591        0.71393058489794
H            6.39531085586288       -3.90315033955073        0.19488246788098
H            6.88964828083815       -2.69068650743496       -1.00532670303544
