47
 energy: -79.493759348223 gnorm: 0.000749543009 xtb: 6.5.1 (579679a)
C           -3.84284747960011       -1.65847660322184       -0.27127920370965
N           -2.53628726980396       -1.05538009168318       -0.54766094633629
C           -1.44847587521779       -1.97268720524825       -0.61342336660485
O           -1.60906917338572       -3.14152014346061       -0.42532594600650
C           -0.13101881408312       -1.36643891510394       -1.09196277356832
C           -0.26273135363294       -1.27397419073184       -2.63821064013518
O            0.94183679992821       -2.17350320143123       -0.72779949501372
C           -0.00282303510793        0.00811418087022       -0.52231132770101
C            1.27480589551204        0.67491897364330       -0.05532657628055
O            1.22039888717486        1.67758161843168        0.63533493562834
N            2.40870144905819        0.11944435970154       -0.49722107697483
C            3.70010567040530        0.70419074091021       -0.13641490191724
C            4.09552597241009        0.24334978939812        1.25000225462015
C            3.82642514356851        1.04523537159687        2.35624662953757
C            4.15804085662993        0.61507890252597        3.63340540548957
C            4.75135029718112       -0.62711013340766        3.77383975759551
F            5.06960208950000       -1.05252897911901        5.00529728654776
C            5.02703925396926       -1.44995041551036        2.69598121293081
C            4.69134350594152       -1.00354071430597        1.42561928434893
N           -1.07037569609406        0.72744699491755       -0.43773821943874
C           -2.31461490686388        0.25388275119112       -0.65641232519043
C           -3.36168070854423        1.31034753022906       -0.86185655108041
C           -2.72347243998106        2.52167337612526       -1.56868967694479
C           -3.86607081595857        1.72619675185656        0.53454414564570
N           -4.46976925983977        0.79500471699778       -1.63873678682809
H           -3.85411345010594       -2.65770656244792       -0.70276096472311
H           -3.97609488724343       -1.71926684976699        0.80841744582918
H           -4.61795820772269       -1.03471339157212       -0.71276978973009
H           -1.04864763796069       -0.57400224136354       -2.90968825163407
H            0.68975534499017       -0.93513410557592       -3.03843880113802
H           -0.49152587745021       -2.26031678052474       -3.03530795270757
H            0.77082814037395       -3.10159444394240       -0.94609747572221
H            2.40320944264841       -0.74827766465224       -1.00709337226512
H            3.59794055792192        1.79272299726217       -0.16809605440429
H            4.42639703441961        0.38051985119255       -0.88328180782324
H            3.34900295094663        2.00855981636659        2.21812073219657
H            3.95627379772748        1.22667237751288        4.50345420725704
H            5.48993131278646       -2.41633816040348        2.84814103211215
H            4.89442754266046       -1.62991180917936        0.56589089541833
H           -3.49255891677552        3.27276438367883       -1.73521028976597
H           -2.31196997100406        2.21645476466136       -2.52889556408295
H           -1.92956373522512        2.95021257135633       -0.95902163955680
H           -4.37249026364323        0.89114856590158        1.01449393837499
H           -3.03243648446007        2.05018911283753        1.15585515659567
H           -4.56858300807258        2.54933110942110        0.41707905859300
H           -4.18203300971354        0.62628167073845       -2.59155297293435
H           -5.22572966825869        1.46504932333297       -1.64371562850484
