42
 energy: -83.000719739434 gnorm: 0.000442880815 xtb: 6.5.1 (579679a)
C           -3.55342466362213        1.70971936729740       -1.14327674381433
O           -4.32560383126210        0.85890709836354       -0.29819859153387
C           -3.88129962965117       -0.22798943307137        0.31070601679227
O           -4.80645433106423       -0.84844511623787        1.01410860773873
C           -6.13925749103037       -0.33445313897072        1.03015175130036
C           -2.58897759139739       -0.75896918102207        0.27279713774379
N           -1.63107690772330       -0.06133806679941       -0.46018517699484
C           -0.43455912834367       -0.50232064652596       -0.54375023530260
C            0.61632644633172        0.21980325782683       -1.36100504575644
C            0.22053756184550        1.67671026091875       -1.60904928513737
C            0.81696551220838       -0.52471261805850       -2.68463005526572
N            1.88332127938859        0.17152146624259       -0.62715214816125
C            1.97877082974874        0.62528788975095        0.64280348306458
O            1.03307916000911        0.98641161509401        1.32279894900825
C            3.36873482590921        0.59949538782473        1.15904492096233
N            3.78401946909313        0.92017757363945        2.34454918585697
N            5.13195055770608        0.71960127166342        2.35689981606744
C            5.45635323132422        0.28843070156176        1.17783437428003
C            6.80086530517550       -0.07402436506714        0.68043998079387
O            4.38695148589018        0.18896389366443        0.37187214109724
N           -0.02814551689853       -1.67945833413678        0.04256746165638
C           -0.83490688055491       -2.47416927651657        0.80935452760676
O           -0.41363660991370       -3.50169134898274        1.30988012645596
C           -2.26477017896994       -1.98029818476948        0.97384189824910
O           -3.04161064272848       -2.63195117565869        1.66359454239972
H           -2.74166910072790        2.17599146500597       -0.58277868932308
H           -4.24540951352909        2.47083764687913       -1.50390743770313
H           -3.14238227877670        1.14940639862866       -1.98400576893705
H           -6.15246495931169        0.67572771148906        1.44419833496899
H           -6.71602746367482       -1.00890154535125        1.66073115986188
H           -6.54975609251817       -0.31796190788967        0.01876885892553
H           -0.67264501190030        1.71017100341596       -2.22953591584547
H            1.02918252796529        2.19288491718703       -2.12217424818110
H            0.01611141392980        2.17763340600862       -0.66341926628793
H            1.57838637227027       -0.02468691738110       -3.27980046072717
H           -0.11725479893686       -0.53564225166901       -3.24359182197058
H            1.13060084024742       -1.55033151590995       -2.49752603235097
H            2.72302452851696       -0.00394883413120       -1.15108726008517
H            7.08545374475012        0.59123764045248       -0.13455374595570
H            7.52621344343959        0.00700079769241        1.48641849576696
H            6.79085646984306       -1.09239680189688        0.29333898410402
H            0.92362761694819       -1.98222811055297       -0.09638182536056
