33
 energy: -57.858046372891 gnorm: 0.000736233388 xtb: 6.5.1 (579679a)
C            4.25028965626178        1.58218632876025       -0.58866696818995
O            2.98748847225011        1.00681705117176       -0.20357480143829
C            2.80366422530098       -0.27441023597160       -0.46980133305403
O            3.60061622411006       -0.99206830651593       -1.00656119324183
C            1.46104667719435       -0.76414224417524        0.04249171996630
C            1.40013246917314       -1.86758059480115        0.83639588901242
O            2.47679431034244       -2.56957028868488        1.16851747612277
C            0.12295535755814       -2.30152494484564        1.39616955594568
O           -0.02774849568071       -3.27958955690648        2.08925538663592
N           -0.92827355628928       -1.45209695636102        1.07162296319740
C           -0.86951953520765       -0.36940736115303        0.27962202933839
C           -2.16968074893850        0.38984680530118        0.05501051066554
C           -2.83094715075597       -0.16378619195119       -1.21838456895942
C           -3.12894737567404        0.21597830507697        1.24525522970871
N           -1.87294447772139        1.80363764603402       -0.11289842921130
N            0.29603724820768       -0.06250956548266       -0.27132252751073
C            0.43022194456909        1.00194868041509       -1.27772767659847
H            4.48042283069286        1.31147144441633       -1.62044045533542
H            4.13672788019975        2.65892871858167       -0.48866456450332
H            5.03393290276460        1.21468111921811        0.07590079426413
H            2.23636325760395       -3.31174696115937        1.75121132034261
H           -1.81391427505214       -1.71236183007809        1.48590953200408
H           -2.20098035612082       -0.00411551425599       -2.09116925165271
H           -3.01726694923182       -1.23067576067602       -1.10661085215148
H           -3.77944666711335        0.34797465160016       -1.37106065788269
H           -3.94928517597712        0.92081250338779        1.12192778649567
H           -2.62202878272574        0.43425923021479        2.18288146732115
H           -3.55044032394456       -0.78746012955706        1.28064141530939
H           -2.69256329630922        2.26983145486328       -0.47743005723839
H           -1.65687335537490        2.21271798437646        0.78654188335546
H            1.21305444875377        0.71860388821136       -1.97720199282426
H           -0.50518355828802        1.12002464201080       -1.80980785121572
H            0.68629617542086        1.93332398893600       -0.77803277867760
