42
 energy: -83.615997112439 gnorm: 0.000858397968 xtb: 6.5.1 (579679a)
C           -4.52591028194504        0.44665105633183        1.61536808622875
O           -4.18916839650622        1.45948863882749        0.72069087058668
C           -3.88411792703007        1.05825961911246       -0.77242218582360
C           -5.24309903539334        0.46483902547005       -1.27907180573000
O           -3.50359281287254        2.10875105836991       -1.42343289244043
C           -2.76915771611619       -0.05003876334039       -0.65746476244115
N           -1.73099985481361        0.32632082105146        0.14762958697524
C           -0.68205718940396       -0.41127776107498        0.27983522488947
C            0.45730453775000        0.00034787945816        1.18897836416979
C            0.19519748034896        1.40687869655371        1.73501700468382
C            0.61795610930938       -1.00698328888317        2.33677028650277
N            1.68863953261469        0.00482390182188        0.37188534182350
C            2.90763712029507        0.32084924999093        0.83297791638897
O            3.18173764028605        0.67135887635216        1.97108389026632
C            3.92679426071191        0.21191704937109       -0.24986253054941
N            3.69003437824985       -0.07152471018740       -1.49522571359039
N            4.89254636363191       -0.05103039374190       -2.13984232194458
C            5.78430180461893        0.24371300610383       -1.24597112969868
C            7.24395296768577        0.38646479725950       -1.43937539127767
O            5.23905533417125        0.42434440716769       -0.03302903057598
N           -0.55486339289399       -1.60356688050272       -0.40512543626722
C           -1.51860074296971       -2.08472412364771       -1.26227603679314
O           -1.31374541175951       -3.17070194136427       -1.83246234119407
C           -2.73629905450039       -1.23344987992638       -1.42070224349315
O           -3.64495133074917       -1.63738744650711       -2.21122022754629
H           -5.58789115700080        0.14777005261007        1.54930378373583
H           -4.35451506543063        0.81106398398819        2.63822438088623
H           -3.91446210808731       -0.46416646753329        1.48377485271810
H           -5.50146411878984       -0.47817471662420       -0.80074598497576
H           -6.02566383483441        1.19890688981530       -1.08254152584598
H           -5.17421125739492        0.31247323316238       -2.35532774631939
H            0.15941558747062        2.12541078491740        0.91609311039101
H           -0.76677273117584        1.41349404621882        2.24703147570209
H            0.97385267065539        1.69894628756497        2.43600267671307
H            1.41416952926507       -0.69655081891478        3.01066260651669
H            0.85663023618410       -1.99315373086659        1.94260269768072
H           -0.31452209180279       -1.06727913801890        2.89650508748530
H            1.62100407347942       -0.31077122237266       -0.58624427698637
H            7.55959883041407        1.39581064399896       -1.17451868436515
H            7.77533641344540       -0.31239385808632       -0.79347306136329
H            7.49668014437175        0.18673598174469       -2.47822609465884
H            0.25421949651140       -2.18244484567086       -0.26535782045243
