46
 energy: -87.003643451610 gnorm: 0.000977085987 xtb: 6.5.1 (579679a)
C           -6.31144351385268       -2.62557522609869        0.94449003231802
O           -5.46337045186238       -1.48315506549280        0.91527171694766
C           -4.29248852244188       -1.64167537205391        0.20058213001696
O           -4.04125432103665       -2.71662048635302       -0.34324113997045
C           -3.45769076589433       -0.46596071338640        0.16785280048172
N           -2.30125291815577       -0.62450190470807       -0.56797527902910
C           -1.44682134251885        0.32956438888404       -0.71976924431597
C           -0.24741054983680        0.02023015868578       -1.61991821995028
C           -0.21450108838520       -1.49382916647163       -1.90041124190176
C           -0.42913849829462        0.77826778235829       -2.94629926091328
N            0.97668600457852        0.43489310523809       -0.92722347196717
C            2.25069324677544        0.11870310562425       -1.50562037970260
O            2.40276690684828       -0.04916097072901       -2.74329004583225
C            3.25364995261504        0.10270747001508       -0.54005476903827
N            3.10659032998247        0.27600463372507        0.82365301472686
N            4.34885962864287        0.15154355010085        1.29770994572494
C            4.57195169893816        0.28497139454657        2.71897713662145
C            5.23792802083308       -0.08246074320633        0.36110454527704
C            6.70121132265047       -0.26361379195572        0.49849711139529
O            4.63122338764662       -0.12950734053642       -0.83967614801275
N           -1.64015182197962        1.56948424572392       -0.15181661728532
C           -0.75094762590547        2.71961047106211       -0.29266161414723
C           -2.79734334707216        1.85722498963178        0.61597122858985
O           -2.93036515188221        3.00190071742774        1.08446392368234
C           -3.71023408440622        0.77808283831345        0.77019531617787
O           -4.82210615160537        1.05713966422869        1.52090756514770
H           -7.17912245534520       -2.36591677032994        1.54877695708896
H           -6.63249629270670       -2.89331358420276       -0.06751739458235
H           -5.79245990413253       -3.48039765831625        1.38995085095550
H           -1.13849211638430       -1.80473148287854       -2.38669711429884
H           -0.10905048606697       -2.04558779836123       -0.96661172924507
H            0.62474304138043       -1.73100571075499       -2.55235497881575
H            0.32289025657451        0.46536013944081       -3.66834447230470
H           -0.34127098327742        1.85307052498465       -2.80075772546244
H           -1.41736311957786        0.56042783462328       -3.35128923939578
H            0.95331460429713        0.17271429189657        0.05318078118209
H            3.60963400693255        0.46480281326155        3.19247363301393
H            5.01357492969977       -0.63059883433283        3.10891939824278
H            5.24259061637077        1.12153688881728        2.90799351092493
H            7.23146164150253        0.61861151113449        0.13365224382144
H            7.02484558457877       -1.11924775235063       -0.09450485270634
H            6.96627303024058       -0.42499573201171        1.53981586766951
H           -0.57115717614459        3.14617634351580        0.69642135197748
H           -1.23130889306244        3.47880506585298       -0.91474243915073
H            0.19901243597953        2.42970570078228       -0.73052136982785
H           -5.40066006524073        0.28031647465501        1.58428068587258
