42
 energy: -82.989907908272 gnorm: 0.000530347570 xtb: 6.5.1 (579679a)
C           -5.24430294416261        0.88460544006573        1.93968894037835
O           -5.06267188419462        0.51354194874133        0.56912257843929
C           -3.93109731709532        0.14451021897747        0.01168793242331
O           -3.90873831533906        0.29250216718821       -1.30135817680732
C           -5.03450250892994        0.87284550647325       -1.96424034449508
C           -2.76355099351905       -0.35704613926014        0.61022874058693
N           -1.68046619888754       -0.38576366649805       -0.26893879314101
C           -0.53779438500567       -0.80580383228630        0.11358800812595
C            0.61691424638183       -0.87492407394100       -0.86283491098672
C            0.87102870704549       -2.35050997732648       -1.20610554199857
C            0.29039576664570       -0.06349547232502       -2.11985491891277
N            1.79107358155557       -0.30385897262201       -0.19150070253775
C            3.01513535834719       -0.24809391997213       -0.76183730185257
O            3.32728978568459       -0.74707314554286       -1.82751428791073
C            3.96356460221658        0.50567343988670        0.09874263004953
N            3.67897329313827        1.09920432414425        1.21886546320565
N            4.83255300793381        1.67135821549704        1.66433268636311
C            5.74721516186246        1.39156525271535        0.78558654493939
C            7.17144820818330        1.79153911365611        0.80534419798079
O            5.25984766651667        0.65916297780147       -0.22657546596677
N           -0.29968617453822       -1.25503732460153        1.39579977253647
C           -1.26249122903591       -1.32487458167590        2.36693338102597
O           -0.99069405050940       -1.69278138136673        3.49461473309247
C           -2.66162359621290       -0.92125992484458        1.92747255657493
O           -3.60370825030440       -1.14079884027255        2.68701488551133
H           -4.32019303545615        1.28047884006853        2.36072123235618
H           -6.01488306003274        1.65620598532976        1.93705720295749
H           -5.58529217774389        0.02364644833073        2.51666845572016
H           -5.91323589141075        0.23535255915419       -1.84621342506114
H           -5.24428998437358        1.86359950515804       -1.55652820695322
H           -4.76060952561622        0.94674987698457       -3.01497975242183
H           -0.04447381977355       -2.78891248588132       -1.60048085857840
H            1.16950993116971       -2.89619635982617       -0.31282544599015
H            1.65571051009935       -2.43618122195241       -1.95496467592753
H            0.11089112415893        0.97703307074435       -1.85419542036580
H           -0.60786733066272       -0.46653409487910       -2.58479036896715
H            1.11652739549558       -0.11816076829836       -2.82603202415590
H            1.64209191601419        0.24333814981798        0.64303030040728
H            7.40468863839879        2.26691385460896        1.75499877930741
H            7.80623659414033        0.91749971259194        0.66369982059753
H            7.37222232267784        2.49015015584340       -0.00750766330871
H            0.62885585514001       -1.55017158040282        1.65564444376077
