43
 energy: -83.129883451203 gnorm: 0.000342743525 xtb: 6.5.1 (579679a)
C           -2.91448283550135       -3.06322219583024       -0.08133764928555
O           -2.62421553694567       -1.64327521944914       -0.13798826847466
C           -2.74181149970300       -1.04241229489817       -1.27267852730674
O           -3.09422355683731       -1.45330790029460       -2.32760293919543
C           -2.31264737205599        0.53128667903989       -1.12552127724486
C           -2.13235800044604        1.07955663142099       -2.54128442988147
N           -1.08704605049596        0.50189891550292       -0.40510523855797
C           -1.04664369594499        0.66562410930668        0.86126643338837
C            0.26790166248617        0.57399435581591        1.60400444399285
C            0.55964424668472        1.90158944364557        2.31995411257439
C            0.20729754662563       -0.60001574411026        2.59438230404071
N            1.29658418764341        0.31826474103871        0.60568589148546
C            2.60636066896346        0.16811004866553        0.90389202232109
O            3.08791456353309        0.23636789683382        2.01948912780074
C            3.39790992633653       -0.09076237516858       -0.32378588542055
N            2.93256187578018       -0.18129120445846       -1.53403153355881
N            3.99838668896497       -0.42081251274380       -2.34692028403967
C            5.04772546445054       -0.45983859442324       -1.58050327565771
C            6.45332165580771       -0.68679692415333       -1.98251530038067
O            4.73161040295447       -0.25873638881829       -0.29312412182798
N           -2.16999443478586        0.93349111747901        1.62576339397812
C           -3.40491000766045        1.14806425270701        1.10551255104146
O           -4.39715581521315        1.43893757412397        1.73135194993344
C           -3.45145111550804        1.03171522017322       -0.38367763289607
O           -4.55277026756267        1.31520607439437       -0.96009127772281
H           -3.84334471205059       -3.26436144193823       -0.61515589369212
H           -3.00616765164727       -3.30045740169684        0.97532639443483
H           -2.08797849739089       -3.61279310302922       -0.53217164693861
H           -3.07252785410737        1.01140011256471       -3.08418600933071
H           -1.36789202671332        0.50055953507792       -3.05438456714995
H           -1.81875610651495        2.11895072153501       -2.47600788356982
H           -0.22894166493762        2.12373383120555        3.03504721264436
H            1.50585935263198        1.82360580305162        2.85319536772315
H            0.62179423794597        2.70898225649554        1.59246673688307
H            0.00727987684358       -1.52498287058986        2.05634801015288
H           -0.57968293110622       -0.43404080036634        3.32629405859950
H            1.16050611030884       -0.68310412119213        3.11432047966877
H            0.99256025504734        0.22589419408180       -0.35461514884662
H            6.87447635227342       -1.51395050644608       -1.41160996830602
H            6.49808837091349       -0.91269274686079       -3.04511342130767
H            7.04698161506330        0.20391306550461       -1.77504787846566
H           -2.09325612310990        1.01864758687784        2.63137853335318
H           -5.26650630502735        1.56706017992535       -0.32997196495864
