42
 energy: -82.992818660458 gnorm: 0.000420865189 xtb: 6.5.1 (579679a)
C           -5.35073973881877        1.24333475068270        2.11573627300496
O           -4.75455582656938        0.70950670743474        0.93357945388032
C           -3.42731760649434        0.55810947120930        0.95892792171368
O           -2.77297100587727        0.85599790089796        1.94573577726072
C           -2.87442485391534        0.05858945074442       -0.30816744207152
C           -3.60076244008313        0.19832389637091       -1.52447793486718
O           -4.76785323301641        0.57477509277823       -1.63360860294045
C           -2.83160190690653       -0.11647335279797       -2.78242522303411
O           -3.28295648542731       -0.08729703949723       -3.90802753459880
N           -1.49145927303012       -0.42167931609525       -2.59429583077969
C           -0.85625613456826       -0.59288069934967       -1.41277845371315
C            0.60937122696567       -1.01062480703960       -1.49304206671036
C            0.71170926046598       -2.54081102856969       -1.38725202038248
C            1.25493400983484       -0.55143902733289       -2.81106354877414
N            1.32118293008384       -0.32203359062622       -0.41362484335003
C            2.60063547534779       -0.61707231833289       -0.05506198534553
O            3.22516338248593       -1.60222946499521       -0.38968028931658
C            3.12887742835007        0.43453282504185        0.84691737846855
N            2.50645919023976        1.51987769396858        1.19907356389562
N            3.35215386544230        2.21117021053907        2.01048471530646
C            4.43926987453458        1.50452224811818        2.10076925483696
C            5.66578178919092        1.82436277901397        2.86292772947993
O            4.35804336433941        0.37209139539112        1.38741327211967
N           -1.54760519477964       -0.41296902479784       -0.30620882143342
C           -0.98637121089110       -0.81382443844563        0.99251402439267
H           -5.14507171067948        0.59300891158967        2.96947114171173
H           -4.95729833183312        2.24184062091066        2.32296789043140
H           -6.42229351376533        1.29169252894725        1.93018132766239
H           -0.98370857052623       -0.58881583326111       -3.44915456768149
H            0.52437405841176       -2.88873875726124       -0.37427669634729
H            1.70549720364427       -2.86643666037093       -1.68680491655157
H           -0.02108343788951       -2.98848887947218       -2.05683185498264
H            0.88437396649417       -1.12943236513182       -3.65514320430433
H            1.07409337238756        0.50813834686560       -2.98071842528288
H            2.32873392308028       -0.71642006477027       -2.73770082626567
H            1.02040707708190        0.62415431873873       -0.22102044903798
H            5.53576189171236        2.76739017723647        3.38819505979574
H            5.87546944189745        1.03084729691655        3.57999006011092
H            6.51566003880757        1.89802992659396        2.18411462393451
H           -0.58527851931417        0.05634540568764        1.50832465182235
H           -1.77662479154912       -1.26464164391883        1.58761694092705
H           -0.20172198486293       -1.54433464361049        0.84297247701297
