42
 energy: -83.643979964033 gnorm: 0.000600490920 xtb: 6.5.1 (579679a)
C            4.90753425317979        3.27146695839946       -0.52521215555705
O            4.47198160174252        2.14827936848251        0.22349271173356
C            3.31020545520747        1.57251919754195       -0.19015789213083
O            2.69283215026220        2.04141158510026       -1.13976935330384
C            2.91587795843642        0.39423154362243        0.56571731405661
N            1.72937284123916       -0.16165352752613        0.12042184194609
C            1.26839820755006       -1.23577670051827        0.64643637605220
C           -0.00635675300342       -1.85358981772313        0.09359958321262
C           -0.71626088741705       -2.75743573434334        1.10998288724314
C            0.36416512443818       -2.66266248450139       -1.16357760464547
N           -0.88612266354933       -0.75447763849993       -0.26988448885436
C           -2.08479507623182       -0.85529685261018       -0.84887417718687
O           -2.60653991071877       -1.90539627286623       -1.22611389480341
C           -2.75835760552524        0.55918347407559       -1.00745915641701
C           -3.06486589391522        0.76179443401641       -2.50429566793831
N           -1.88069320687346        1.58738280621570       -0.47284479489142
N           -2.55790414721723        2.13431910531700        0.59057990920310
C           -3.70677791748507        1.58476948944619        0.71258710154696
C           -4.75787936127617        1.87423539806232        1.72782458930138
O           -3.96367645512343        0.59065312881253       -0.24566485833378
N            1.93861130066228       -1.88374693803812        1.66607682355946
C            3.11179311526589       -1.43638217406691        2.21497995833122
O            3.64047620916924       -2.07879416953949        3.12260470361888
C            3.67242727085057       -0.16256442673663        1.62969416465812
O            4.73437883844922        0.29142437722004        2.10047561855216
H            4.18408978385274        4.09092777319255       -0.45987922312774
H            5.04486056189163        3.00770119562650       -1.57892026825559
H            5.85913473955254        3.58882967303133       -0.10095135589912
H           -1.67365977035675       -3.07800788552977        0.70114122110209
H           -0.89096153980958       -2.22211133688851        2.04221986119535
H           -0.12226153711122       -3.64599929444200        1.31327143536514
H            1.06193382212280       -3.45387921376262       -0.89535058091973
H           -0.52733370566743       -3.11139689668867       -1.59890700545393
H            0.83398713084644       -2.00964059932441       -1.89889346111200
H           -0.63100469368026        0.22023551625475       -0.02529210440459
H           -3.61020701954573        1.69431791753161       -2.63558914521405
H           -3.66787666691896       -0.06406761895647       -2.87984908956260
H           -2.13107972202592        0.81280572560561       -3.06178115037609
H           -4.99421742276529        0.98379065020589        2.31545458739025
H           -4.40188158234705        2.65432782447458        2.39921726243476
H           -5.68218065000967        2.21280472937728        1.25359107201510
H            1.58083582383957       -2.74452928903812        2.04303040586049
