42
 energy: -82.972704139437 gnorm: 0.000360227730 xtb: 6.5.1 (579679a)
C            3.80637255354014        3.67200888603074        1.53694769201638
O            3.78006259683049        2.28114717719924        1.22031544465771
C            2.59439006443284        1.78148999265131        0.84677387757919
O            1.59249818786498        2.46754731969988        0.78106459783996
C            2.62659503917585        0.33745585745866        0.52629283422106
N            1.40631757772170       -0.17555616133119        0.15725247857920
C            1.34752722116712       -1.44867570836993       -0.15628338045889
C           -0.02427299794327       -1.97332631135867       -0.56794506760042
C            0.00422953239890       -2.40287587441954       -2.03801898609983
C           -0.44037065512190       -3.12760598096328        0.34732031261601
N           -0.93049336151764       -0.83202099795045       -0.39567816195395
C           -2.20802100238014       -0.77764571374398       -0.59883791572822
O           -2.83521581106112       -1.84592527855367       -1.01784611814756
C           -4.24909764713274       -1.87421799464260       -1.25199850357623
C           -2.87976550412093        0.48110895067836       -0.34404155664262
N           -4.13593171858474        0.80205834063824       -0.48696460017612
N           -4.25482833668678        2.09369899045317       -0.11599296172362
C           -3.06533212306508        2.50011435560019        0.23638208126257
C           -2.67645564762603        3.83552975602162        0.72931405814432
O           -2.15861427428243        1.52467965494523        0.11194593104423
N            2.32969285748044       -2.33904299437398       -0.16586225234994
C            3.56981742425643       -1.91478270243492        0.19382700192373
O            4.57497432448171       -2.64349481786030        0.23349925327905
C            3.71167636531595       -0.49599833324887        0.55468681305260
O            4.96157433607034       -0.12460631899276        0.89579267147250
H            3.51369988754221        4.26451949738751        0.66613705221305
H            3.12042975302403        3.88629793829151        2.36059945013228
H            4.82816326182988        3.91073662215101        1.82733284824640
H            0.20660531747256       -1.54296819178559       -2.67474124008265
H           -0.94332064844555       -2.84850577166369       -2.33218918883849
H            0.80107868310797       -3.13555203662002       -2.16323267118667
H           -1.36862396128225       -3.58156212564553        0.00835656273043
H           -0.56962923587851       -2.76818777878044        1.36697413531968
H            0.35282718320383       -3.87517343336798        0.33102005165268
H           -0.41078964125763        0.00784734582236       -0.07444894532502
H           -4.47048916142255       -2.88863326936807       -1.57830726639311
H           -4.51708540264395       -1.15468752512514       -2.02721876264442
H           -4.78705342040257       -1.64093400753520       -0.33179072151249
H           -3.52744681206456        4.50965924890666        0.67338946893817
H           -2.33785109526359        3.76155768051423        1.76351218692105
H           -1.85191184060587        4.22680095043424        0.13342556419289
H            5.51407213187757       -0.93227923674630        0.81923393237335
