46
 energy: -86.329909544712 gnorm: 0.000459226535 xtb: 6.5.1 (579679a)
C            6.63195218334881        0.49479630416166       -1.17570139904710
O            5.36599827523669        0.91402956904174       -0.65232040546714
C            4.34384796183783        0.08621643784252       -0.83243330936298
O            4.43385446974923       -0.97851423619103       -1.39827479807658
C            3.06134936223008        0.60543011329738       -0.26641506583575
N            1.99966041403218       -0.23687535917223       -0.44702585616233
C            0.81079336435197        0.03890278458173       -0.02872251062571
C           -0.21116103452795       -1.06723363510395       -0.29458515113664
C           -0.70490433309079       -1.72447915203434        0.99662535612323
C            0.43548329543776       -2.13520230644071       -1.17923708878190
N           -1.41394192257767       -0.46176809998939       -1.02417127623941
C           -1.06743358781599        0.19174478770675       -2.31639510059088
C           -2.50857230637326       -1.48178134541338       -1.28337755230374
O           -2.38110685838780       -2.27525671855841       -2.15989318091631
C           -3.63069181503130       -1.30062606892971       -0.40308091016470
N           -4.74867540500881       -1.97905609578172       -0.37523407385205
N           -5.50738870824451       -1.44580468371516        0.58681101035765
C           -4.83009302930287       -0.45788104952538        1.11597697651707
C           -5.24720862707201        0.43958212509846        2.20575215325308
O           -3.63539882790645       -0.31987067215888        0.53154384984723
N            0.53408201677255        1.21207952267568        0.63762523212117
C           -0.77820461619932        1.63945462133644        1.12178350712860
C            1.53512145999849        2.15505241084610        0.84630937620816
O            1.32096016605340        3.22597741606778        1.39555985502139
C            2.86789524667783        1.79575922768676        0.37466566406507
O            3.81586790654462        2.70140039270433        0.60611737273062
H            7.34821260662703        1.27126672799216       -0.91426863694868
H            6.92366319880629       -0.45941627058018       -0.73065484444775
H            6.56867948563330        0.38438678306966       -2.26079594941710
H           -1.37097395558431       -1.08020109401067        1.56167522388424
H            0.15752858309233       -1.96471816556538        1.61710488654547
H           -1.23625632033896       -2.64635705234954        0.76322080079613
H            1.25076062391769       -2.59098600348514       -0.61917092034092
H           -0.28352009310717       -2.90782866583872       -1.43850990559336
H            0.84725920799100       -1.70020504270507       -2.08700471253979
H           -1.82229877427921        0.24956744742140       -0.41860387571043
H           -0.21728243889999        0.84597652409131       -2.14644559723803
H           -0.83341957808490       -0.57452641151449       -3.05030757320250
H           -1.93509713942842        0.76611605900377       -2.62955979497515
H           -4.50519776147400        0.41930127462193        3.00375675296525
H           -6.21778243013312        0.13220816270579        2.58908001436165
H           -5.30452329674903        1.46347337135555        1.83405299643521
H           -1.30494973772644        2.16583655340213        0.32642005485990
H           -1.36050976807993        0.79684378288623        1.47240397557125
H           -0.61478416699478        2.32767817377813        1.95126319276763
H            3.41840370407428        3.46550655567775        1.06609323741913
