47
 energy: -80.230333934570 gnorm: 0.000466902813 xtb: 6.5.1 (579679a)
C           -2.99321472831514       -0.82338385936122       -2.04688399471466
N           -2.25330492402994       -0.94097193608705       -0.78836991485866
C           -1.61225846100255       -2.12766861125878       -0.61002673428872
O           -1.60712011890063       -3.00158991572476       -1.48687245017987
C           -0.89216652269224       -2.29036983996912        0.72883385113205
C           -0.04112943403963       -3.56208100724698        0.70263921752255
O           -1.94148226674942       -2.44545426146784        1.71995537276869
C           -0.13730606453439       -1.00122037204962        0.95263517797758
C            1.14845117330122       -0.90746337579922        1.52339694667597
O            1.92199502108198       -1.85630531717140        1.78387960882914
N            1.55237115520979        0.41184719233612        1.84959834354435
C            2.98603828953503        0.65835644924790        1.92400109845151
C            3.60124844845914        0.68633307490449        0.53997146811856
C            4.08176756009926       -0.48504168171429       -0.04374079877831
C            4.61012157745923       -0.47361246525062       -1.32698043085895
C            4.64101415849985        0.72757608712213       -2.01178482085734
F            5.15420509464875        0.74958113317702       -3.25842469240410
C            4.17070160222882        1.90859622859216       -1.46879718685502
C            3.64861614836638        1.87701745525824       -0.18242495067102
N           -0.83559562646387        0.15963287916565        0.72600056063333
C           -1.88654816521571        0.19439155535553       -0.01835622801198
C           -2.74545782124931        1.44888810049013       -0.01765585136155
C           -4.19223869570398        1.09675526590433        0.35910294614788
C           -2.18268592576455        2.43805262453936        1.01648121910522
N           -2.75178532974269        2.09287765948689       -1.34087469488965
H           -2.39696093844017       -1.25067359697539       -2.85851524530589
H           -3.93255219594627       -1.37708673705733       -1.97598544533551
H           -3.20178146987527        0.21892526131676       -2.27182044001390
H           -0.66602124371929       -4.40737821705822        0.41124106174862
H            0.37696946509982       -3.75715038667540        1.68754966843790
H            0.77208099546030       -3.45742249560726       -0.01347928949078
H           -1.55760865136399       -2.37034514621568        2.60017204934108
H            1.05918970449679        1.12363495079239        1.31941778057506
H            3.44311231777328       -0.13230067885057        2.52865397881794
H            3.14145543108422        1.61868715185686        2.42466294034047
H            4.04163444791587       -1.41607632508921        0.51204408298956
H            4.99432207141084       -1.37417663486969       -1.78893457584514
H            4.21639179911451        2.82837190293327       -2.03658495239176
H            3.28014129251170        2.79430733717282        0.26238928915726
H           -4.78262472909594        2.00662675167492        0.46234916278948
H           -4.65406808446683        0.47229835737465       -0.40427010564139
H           -4.20865664129926        0.56111665933254        1.30840084269906
H           -2.76325751512654        3.35929780661348        0.99949762065592
H           -1.14443353628020        2.67190499938236        0.78370453444116
H           -2.22537204837673        2.00905105480161        2.01746065351838
H           -3.40099293235026        2.86633834935300       -1.32294149419942
H           -1.83520168301894        2.47730557330932       -1.52833017945925
