42
 energy: -83.642562382271 gnorm: 0.000349030425 xtb: 6.5.1 (579679a)
C           -5.74267954387939       -1.20168072274463       -0.57480554095711
O           -4.38372794473625       -0.93248078095060       -0.33323091165686
C           -4.09971693624644        0.24216259702075        0.51586658368457
C           -4.29587118939515        1.51066889115243       -0.35542527481089
O           -4.91632655851554        0.27706357195939        1.60899898660880
C           -2.62400459525009        0.10576021800439        0.90904044300696
N           -1.69134455394684        0.35455970720999       -0.06097763058421
C           -0.43450917005264        0.21679920006170        0.29763904437602
C            0.60733751614179        0.49095256538355       -0.79004290554735
C            0.30444501625514       -0.36655394385133       -2.02499499739599
C            0.59212710515059        1.98217158200217       -1.15353080853776
N            1.90450523847296        0.12691180002307       -0.22501647041220
C            3.07229370963510        0.16384851334246       -0.85822656951297
O            3.26272437575473        0.52668883579745       -2.01454734234720
C            4.17981922678707       -0.31842188463357        0.02450024228431
N            4.06249213307265       -0.72528268718770        1.25109252598937
N            5.31048980044372       -1.09400187103925        1.66692121321143
C            6.10631898358191       -0.88959692054133        0.66550926646549
C            7.56383540886661       -1.13789750693317        0.60648139300349
O            5.45630360683293       -0.40040806732257       -0.40200596742155
N            0.03217905570420       -0.13079121038208        1.49639764182114
C           -0.84526726562118       -0.37819205739475        2.51989901878737
O           -0.42080417330733       -0.70319036518187        3.65677652933229
C           -2.27662906696339       -0.24850777805434        2.19606957727037
O           -3.20275544571629       -0.46617829033807        3.12363340735895
H           -6.35335907151772       -1.07892407224925        0.33143703595061
H           -6.16156701130804       -0.55720743746125       -1.36331007574337
H           -5.82356903812657       -2.24119727396934       -0.90818258558623
H           -3.65808420630637        1.45934385418491       -1.23685837374522
H           -4.02939147128459        2.38632163568764        0.23489395127744
H           -5.33688939274748        1.59748307605749       -0.66082961717520
H           -0.72508706067484       -0.18105058423365       -2.33212549606752
H            0.97275722735679       -0.11923945423742       -2.84839296219649
H            0.41579743276443       -1.42386593333621       -1.78382628221962
H            1.29298556810245        2.19304447773162       -1.96022737085706
H           -0.41316983997403        2.25525748337158       -1.47362521551804
H            0.86178564608728        2.58270571997481       -0.28492456215843
H            1.85153003755116       -0.16627576086676        0.75839295497477
H            7.91226208560578       -1.49807267825464        1.57092277409938
H            8.09037504519467       -0.22007037769864        0.34765212296667
H            7.78564121670001       -1.88058590277257       -0.15945443868468
H           -4.20325390048761       -0.11207316733787        2.46399968667215
