33
 energy: -57.866963492797 gnorm: 0.000618370726 xtb: 6.5.1 (579679a)
C            3.43699059178122        1.48198391526277       -2.86971853801979
O            2.47374366256943        0.96849585582090       -1.94193588193995
C            2.88423558991558       -0.00926558788189       -1.13517278580418
O            4.00402788130042       -0.46017091778921       -1.14852751570876
C            1.79492333197696       -0.47189197218295       -0.22358090821252
C            1.95424602507814       -1.43422572906498        0.73358259651067
O            3.09274841393396       -2.08000193723025        0.97427617177141
C            0.82604630959325       -1.81534786087515        1.57686305346728
O            0.93381674490446       -2.67493128089557        2.43887755518820
N           -0.36484196699691       -1.13584938582036        1.34044286043648
C           -1.48080326702716       -1.54422856162283        2.19175819467725
C           -0.44647185917369       -0.19688181770471        0.33964366117839
C           -1.69834533245541        0.61764316292519        0.03523236121213
C           -1.96100372092817        1.68120102597705        1.10232821352519
C           -1.55036574913854        1.27901062387999       -1.33778950996605
N           -2.92274881952853       -0.26594889399489       -0.06983096185302
N            0.57186476309742        0.11957200486873       -0.38669271495653
H            4.34447656180087        1.78584646522510       -2.34156852631783
H            3.68489687318102        0.71736283044510       -3.61019252295048
H            2.97333627236323        2.33931208500070       -3.35342887274308
H            2.95039729749397       -2.71507183291241        1.70164684300380
H           -2.72577491619286       -1.11041414661077       -0.59713197141227
H           -1.06550095661812       -2.06243838093487        3.05671412955614
H           -2.03788718373865       -0.67703995805563        2.52823660724011
H           -2.12763156038400       -2.22732808615013        1.64484166977816
H           -2.83761038683159        2.26595246704907        0.82962842002008
H           -2.12548452641669        1.24061866142880        2.08231742229147
H           -1.09741659756000        2.34345206184522        1.15699990583896
H           -1.37808514435839        0.52561761206626       -2.10415468544799
H           -0.70174820391403        1.96112276026609       -1.32158391629542
H           -2.45188309814715        1.84019987739779       -1.57595242567084
H           -3.65944569843742        0.23826414263401       -0.55380120226628
H           -3.29270233114343       -0.52461820236669        0.83767227387299
