38
 energy: -79.616658684968 gnorm: 0.000889337706 xtb: 6.5.1 (579679a)
C           -3.40429330561205        3.87308550408647       -0.43709462744090
O           -3.38562928707442        2.44953391318105       -0.48441073745892
C           -2.20072948077875        1.86459423910194       -0.23690725848684
O           -1.20330640170962        2.51619624924932        0.00622190914301
C           -2.24348874752990        0.38693134159114       -0.28154357891970
N           -1.03876204804450       -0.22028396810129       -0.03241264033172
C           -1.00229781671315       -1.53253876216675       -0.03648927488510
C            0.33491895897494       -2.19942711461335        0.26343060403473
C            0.22817154071456       -2.92161025655662        1.61408511010639
C            0.67686302200806       -3.18933918051819       -0.85765927613100
N            1.34723789861295       -1.14560931173049        0.32791841595101
C            2.64208732293119       -1.35303463414060        0.57799290957122
O            3.16281125623923       -2.43710009656937        0.81641433159960
C            3.45704231193597       -0.10457261790266        0.53836399430877
N            4.72856689127501        0.00652623130737        0.77449045088419
N            5.04920515653053        1.32083986877213        0.59727585114463
C            3.95392962273953        1.92898950138768        0.26215990607830
C            3.78000639164753        3.36564986577094       -0.04510101502380
O            2.91063112620632        1.08569777047410        0.20832852626386
N           -2.01254719771703       -2.37466452768456       -0.25547017995218
C           -3.23292759551114       -1.85298013401548       -0.51994351912411
O           -4.25499934558943       -2.53018001012325       -0.74849814237566
C           -3.34415169843800       -0.38952547151272       -0.52913645755328
O           -4.58444982576975        0.07866360292808       -0.79152034738264
H           -4.41810298008933        4.18536359904822       -0.68191911977636
H           -2.69865816071875        4.28878791589897       -1.16161654813703
H           -3.13573433248676        4.22490610050865        0.56301700616261
H            1.15072276945759       -3.45209312819477        1.84404991734281
H           -0.59223613122756       -3.63702910649651        1.56426306280955
H            0.02176736321697       -2.20276299773286        2.40628074102941
H            1.58443206014596       -3.74239924216436       -0.62132659480129
H           -0.15020173099381       -3.88939906742871       -0.97211873858984
H            0.81911418577917       -2.65503926356212       -1.79627923284074
H            1.00187008595969       -0.20451187293500        0.15545171146749
H            4.74349254567900        3.86651034407171        0.00405824237323
H            3.35585491781198        3.48606945406918       -1.04126787983222
H            3.09749611144428        3.82314344431201        0.67099559958478
H           -5.14370645331578       -0.71738818161331       -0.92376112081865
