42
 energy: -83.614383007669 gnorm: 0.000359487791 xtb: 6.5.1 (579679a)
C           -5.76833370570540       -0.90913955117358        0.75021780228805
O           -4.86521710814312        0.09279745069893        0.30302903008060
C           -3.57586972422925       -0.30064059350672        0.13101397350897
O           -3.23211294772481       -1.45750380584150        0.33264372123180
C           -2.64425091439820        0.85687594664704       -0.18798327066909
C           -3.30564842048131        1.91305071249991       -1.07572875256904
N           -1.45750566241028        0.33799974423490       -0.84677259847637
C           -0.56016361628698       -0.19604264999671       -0.10038825988656
C            0.56152273356238       -0.99765232379467       -0.74625530533208
C            0.69730242229175       -0.61780914557756       -2.22662620179712
C            0.16652473351299       -2.47637584083769       -0.59577540055033
N            1.80288765761822       -0.70672645760103       -0.02205591937968
C            3.00474100275924       -1.31580736171724       -0.41575657176183
O            3.04990075989518       -2.41122507383896       -1.01705563736597
C            4.17259737052261       -0.59827110817844       -0.01161344089940
N            5.45027785487412       -0.94560938967448       -0.19705572096468
N            6.20680514950186        0.07377406482281        0.31039107918211
C            5.39627841158016        0.97155038794162        0.76716282360373
C            5.75720357164871        2.26195702538469        1.40516008826196
O            4.09179713340444        0.63587875564014        0.61068998097765
N           -0.59332998782103       -0.18315697956942        1.25853485490563
C           -1.37441111837825        0.77281079040524        1.98867240271812
O           -1.02341852485561        0.99235438089759        3.18395215547340
C           -2.40781271053251        1.39598836930737        1.25233636721330
O           -3.17735657853164        2.31974404255685        1.68516961878813
H           -5.48586706700277       -1.27623205626310        1.74256416082588
H           -6.75637293909826       -0.45364577118451        0.79280051860208
H           -5.78275469356208       -1.75303303221442        0.05325419235093
H           -3.62708628982571        1.47090536808652       -2.01816542155006
H           -2.58927488117349        2.70648312162875       -1.28812745204857
H           -4.16840145742341        2.34503884084058       -0.56979569063407
H           -0.25685620175581       -0.76653923089297       -2.73156213394227
H            1.45584589204233       -1.23365966753886       -2.70766511480687
H            0.97893053975023        0.43084363521882       -2.31866449586710
H            0.80841653167060       -3.11932382462862       -1.19449714127006
H           -0.86597863975465       -2.60314982316804       -0.92423791487854
H            0.24082604877152       -2.77652656052635        0.44908770663357
H            1.91786974857783        0.28105034213004        0.17047729924802
H            5.35673761768040        2.31308196627770        2.41819406837038
H            5.34455561446234        3.09614037057998        0.83691200467155
H            6.83982393313379        2.35562267238121        1.44233871190166
H            0.21717846183355       -0.52587774046962        1.75274388380128
