38
 energy: -79.622790071523 gnorm: 0.000957458675 xtb: 6.5.1 (579679a)
C           -6.18004803337563       -0.29097002728280        1.95768192865997
O           -5.02388460280655        0.40743274105082        1.51912478071181
C           -4.04688097273263       -0.35539361967914        0.96612265289520
O           -4.18271052644819       -1.57035585553104        0.87393253978602
C           -2.88042276668659        0.38521715413571        0.50992506442514
N           -1.92722932232829       -0.43014857525632       -0.07248709991583
C           -0.84134868126104        0.06048238394191       -0.53803012728845
C            0.16772013878771       -0.82788152307120       -1.23574964877331
C           -0.13395925359266       -2.29748327725521       -0.92607597271234
C            0.10408318665593       -0.55638683191628       -2.74683228331876
N            1.50458876586625       -0.47849973539094       -0.72658702741434
C            2.63836824442230       -1.04446231669161       -1.17576959146661
O            2.71649014808431       -1.88584444860578       -2.05814488335682
C            3.85357157599877       -0.53309122814072       -0.48578542421040
N            5.08570609597736       -0.86827282431233       -0.71361433229163
N            5.85653579727626       -0.14592852342866        0.14959855012206
C            5.04691017377606        0.58517712566952        0.84982339014253
C            5.39363624332597        1.54849602003656        1.91741849444869
O            3.76494781618692        0.38818367577708        0.49834775032737
N           -0.57269123216777        1.41580505514028       -0.49298375407252
C           -1.42502053717243        2.33972930913143        0.05906887769977
O           -1.11400762245030        3.52771416465339        0.06428976024642
C           -2.71865481232619        1.79096146189276        0.62264696652334
O           -3.52858072761067        2.58836529001035        1.12928968217327
H           -5.92419953652947       -1.01320860897959        2.73952980291905
H           -6.64913060809886       -0.82600552843296        1.12551589023123
H           -6.87175421505889        0.45154331049725        2.35423961219247
H           -0.03764458991574       -2.47819064926714        0.14370563269536
H            0.55304993883705       -2.94796438695050       -1.46342701065791
H           -1.15534558773851       -2.52507604688432       -1.22925516571833
H           -0.91471220656892       -0.71706938913783       -3.09729292509391
H            0.77215636023393       -1.22450856001764       -3.28657571099307
H            0.39110363750360        0.47340029029917       -2.95242171839673
H            1.56649408245067        0.16339568955223        0.04708022898992
H            4.85657280331173        1.30182840980767        2.83277622052730
H            6.46467376221962        1.51769693650494        2.10122371276160
H            5.10560023246018        2.55633153884045        1.61784103729828
H            0.28601683149355        1.77070939928879       -0.87815190009627
