21
 energy: -31.456380852672 gnorm: 0.000517062755 xtb: 6.5.1 (579679a)
C           -0.40034272046065        1.96020021993676       -0.55261523024778
C           -0.28873956953100        0.46937377231268       -0.09720171846624
C           -1.75257862934452       -0.06373208962183       -0.00651454583141
N           -1.75877378458714       -1.49689280559223        0.31150840013721
C            0.49325342414349       -0.32521065146635       -1.12900355856919
C            1.69119105661392       -0.92891817306935       -0.85354815469147
C            2.24043997554622       -0.86920257009716        0.42682905506592
F            3.45577498872688       -1.50755784725966        0.67929061004669
C            1.58074133365451       -0.22338074880002        1.47445402760296
C            0.38395495303036        0.40330426579549        1.26314141673435
H            0.59900139646344        2.39042462503423       -0.62566739365898
H           -0.88163381896754        2.03127357819319       -1.52958869597529
H           -0.97868215455471        2.54252104440608        0.16706945441416
H           -2.29472287468139        0.46840270829100        0.78568454962492
H           -2.27705642466207        0.11953247658508       -0.95990219773855
H           -1.28607975458779       -1.98146896319331       -0.44875297381069
H           -2.71683741546423       -1.81681630480582        0.30774932597899
H            0.07130093753214       -0.37243909818852       -2.12913624046255
H            2.22095926059270       -1.47015235041971       -1.63465506223803
H            2.02849127236071       -0.22772071319264        2.46658765224561
H           -0.12966245182317        0.89845962515212        2.08427227983939
