42
 energy: -83.600813395730 gnorm: 0.000485107613 xtb: 6.5.1 (579679a)
C           -3.69980313426942        3.25594154445285       -0.85347046390603
O           -3.09325557038805        2.47584167215637        0.16732497821069
C           -2.29157001384367        1.45538056764025       -0.24919788686010
O           -2.08143671755234        1.26792879250197       -1.43824584109690
C           -1.88848590765070        0.51923722469229        0.90254107091254
C           -1.66657768275014        1.30206109873290        2.20960019287916
N           -0.67904234400527       -0.20275306317332        0.55512255667997
C           -0.81716344252406       -1.41430182615598        0.07092170565631
C            0.48381425070266       -2.11752456843650       -0.35512774892203
C            0.69884648840073       -3.33668902220432        0.55585395284417
C            0.35347641227106       -2.56219582050243       -1.81969232903252
N            1.58808677460950       -1.17336020563205       -0.21001495683036
C            2.87694548970879       -1.45195283455899       -0.48798881279476
O            3.28644099425465       -2.54613179844244       -0.91159132833198
C            3.79884411449995       -0.33611583754124       -0.26610174443962
N            5.10090529030657       -0.33436107587214       -0.46992022652211
N            5.54567375076016        0.91839912435114       -0.15105111566610
C            4.51392327015807        1.60418216574808        0.22337375332040
C            4.49321507439282        3.02013322275235        0.66090320345764
O            3.37209684873761        0.88545064936925        0.18010425102341
N           -1.89415845229193       -2.17026782354224       -0.09171580174557
C           -3.10338691217797       -1.66688503627489        0.40065454577110
O           -4.15769873335884       -2.38212604762429        0.40662430238572
C           -3.08537667150215       -0.37910087221027        0.93723351139935
O           -4.27224444872313        0.13722617275967        1.49852917511852
H           -4.25795167644735        4.05080955038069       -0.36065162808215
H           -2.94032314428194        3.69342637652171       -1.50952623628817
H           -4.38051431110299        2.64786136662544       -1.45873043719830
H           -2.58549952861366        1.79557469974871        2.52315297166872
H           -0.88860547595720        2.05191092966536        2.07126497272636
H           -1.35094164039751        0.61008921184618        2.99005870103808
H            0.86963197917972       -3.01075317182987        1.58208366277601
H           -0.19846019154533       -3.95618561053606        0.52768293009206
H            1.55180891027667       -3.92995597883131        0.22775186805050
H            0.28966800272013       -1.69071961646551       -2.47207480834810
H            1.20547713818346       -3.16884933989736       -2.12467503881278
H           -0.55894835376813       -3.15040857546718       -1.92639812516730
H            1.33071613785293       -0.26657305584095        0.17540403063141
H            3.80494926972878        3.59762292900858        0.04386240673495
H            5.49276683637442        3.43837534372538        0.57435852676914
H            4.16282920904474        3.09323163144933        1.69703484170882
H           -4.92866988902110       -0.57347209308814        1.39120841820478
