42
 energy: -83.003702597527 gnorm: 0.000638311852 xtb: 6.5.1 (579679a)
C           -6.14579623176522       -0.84021344606151        1.69302583582266
O           -4.91256321176088       -0.17351623482925        1.38857002009240
C           -4.03175752025764       -0.85075215247707        0.67274649218363
O           -4.19934837355400       -1.97088415244656        0.26175750884481
C           -2.76215634848596       -0.06160706597446        0.38812281155494
N           -1.65333259878718       -0.90739960676734        0.15370974367498
C           -0.59809377651749       -0.42024310620152       -0.36644296712464
C            0.62072861016364       -1.29702718473357       -0.56571518450920
C            0.65939869555608       -1.72599819329847       -2.04040980911885
C            0.55893337383322       -2.51267026388445        0.36366230128419
N            1.79603549633691       -0.48201940384049       -0.24466304770475
C            3.06546466653103       -0.93354932794016       -0.37005094472510
O            3.39548655528913       -1.99864118549468       -0.85644023356902
C            4.02961184135220        0.06261582546628        0.16279728142164
N            3.72842219147604        1.18443182603343        0.74528432922332
N            4.90602626460783        1.77859048777796        1.08533231542045
C            5.85108786853353        0.98008525552976        0.68933520136373
C            7.31191941968050        1.17074254188431        0.82289156097548
O            5.36045327302874       -0.12080481944313        0.10125620777091
N           -0.51349789771083        0.86162187026404       -0.87261356939593
C           -1.60492866503082        1.67925076239523       -1.04685879854150
O           -1.58702246602848        2.60638282925734       -1.82749321800229
C           -2.80159070337917        1.31137559434084       -0.22078602757012
C           -4.07438011620343        2.04366018243240       -0.57093490325565
O           -2.52130467074057        1.08903014576844        1.13932177845928
H           -6.76857181600462       -0.11547642098620        2.21169593707851
H           -5.95176996813129       -1.70437878667434        2.33101906984000
H           -6.62762096666689       -1.16847576306132        0.77000995250766
H           -0.27307819315238       -2.22810698019248       -2.29318634406748
H            1.48849087942230       -2.40951817234464       -2.21070912300654
H            0.77952630958718       -0.85424656663916       -2.68087016153131
H           -0.35280589265333       -3.07364422825266        0.16476741205122
H            1.42049113765273       -3.15492086423725        0.19190159863120
H            0.55437487896019       -2.18597484345333        1.40247708782185
H            1.65699158589263        0.37361776836161        0.27188750359630
H            7.73826885721733        0.36844408688095        1.42566052806984
H            7.78152045773946        1.13964293899649       -0.16027109127954
H            7.51527221890705        2.12899445480764        1.29499916892977
H            0.29938085033536        1.10529599465450       -1.41904736780887
H           -4.46037415520363        1.68093527935959       -1.52193084700968
H           -4.82189712516133        1.90213106818114        0.20444210893110
H           -3.85599273490833        3.10707585684438       -0.66825411734466
