21
 energy: -30.769785395530 gnorm: 0.000632043144 xtb: 6.5.1 (579679a)
C           -2.51669993787031        1.01542323751092        0.00923352836200
C           -1.45313358837468       -0.04784753217837       -0.37306100001711
C           -0.07675935805089        0.47019071807033       -0.38273825659905
C            0.96781706428359       -0.18648064445030        0.21346071035911
C            2.35970506537298        0.39653267101629        0.17349357969012
N            2.46737062432827        1.36421840721566       -0.90832406380313
C            0.72067518811605       -1.39433224894045        0.89779265254427
C           -0.55072801267458       -1.96024821296571        0.96827861170086
C           -1.59595804114948       -1.30304734241845        0.37378970962684
F           -2.80266638761932       -1.80131764406021        0.43975974649687
H           -3.50866884712640        0.57592750892294       -0.06966848589400
H           -2.34346379083220        1.34684761849908        1.03045901022159
H           -2.43714358393604        1.86273210233800       -0.66748939618799
H           -1.68544947047818       -0.30064260376673       -1.42478890347831
H            0.10590133131333        1.40807023718558       -0.89812493209553
H            2.54039998716264        0.90995080761646        1.12299186355965
H            3.09584127617220       -0.41179622167248        0.08027118286433
H            2.62986526889683        0.87597784264758       -1.77808040547028
H            3.25759731793485        1.96889780749852       -0.73456594825666
H            1.54476859664229       -1.89939877450557        1.39037171207160
H           -0.71926870211054       -2.88965673356357        1.49856308430567
