42
 energy: -83.009428286239 gnorm: 0.000838245280 xtb: 6.5.1 (579679a)
C           -4.42132402127975        0.02569652967546        2.11972730214804
O           -3.48007863936777        0.21041872613770        1.04953577824077
C           -3.91567339868808       -0.01716614590487       -0.17478839780471
O           -5.03847366521739       -0.32679237343902       -0.46642343911729
C           -2.78903723507752        0.18392121552688       -1.22729033527107
C           -3.30694401743369       -0.23742756223373       -2.60274339249522
N           -1.69688123385005       -0.67747987460874       -0.82760208189946
C           -0.74476499376331       -0.23028999837506       -0.12276451604243
C            0.33782374119945       -1.16265129421655        0.37722968294882
C            0.06349346294516       -1.47814586842513        1.85028736127433
C            0.37583031005964       -2.44052193629911       -0.46494669622554
N            1.62452860399571       -0.47166710312778        0.29294002347801
C            2.01882113174764        0.11890573937294       -0.85926434327089
O            1.29770641972879        0.27583183057570       -1.83030282068109
C            3.41956410825021        0.59860029037239       -0.81755309566116
N            4.06918389584668        1.23308330393639       -1.74307278806701
N            5.32505805813902        1.45028514197979       -1.26268259077118
C            5.36546571876321        0.93441226063229       -0.07357116201337
C            6.50528573303922        0.90941457875082        0.86757236121974
O            4.19094801169411        0.38007087140150        0.26902235626209
N           -0.64319728638978        1.08476413581971        0.31237038547975
C           -1.43281858010694        2.09843608407648       -0.13170531452107
O           -1.31300559381735        3.24126250322673        0.25017925563281
C           -2.46571813316562        1.66584402752968       -1.18052591686766
O           -3.00643779135007        2.47063937647651       -1.89345776894708
H           -3.92708273558498        0.36941478724038        3.02485299998725
H           -4.67597794292160       -1.03203582663076        2.20356703685211
H           -5.32435622597562        0.60795211155230        1.92645410232419
H           -2.51713974609243       -0.12377587976406       -3.34221896854126
H           -3.61886691087661       -1.27865578461732       -2.56809093587037
H           -4.15639391476725        0.38422404876820       -2.88044915964114
H           -0.91487192392342       -1.94598930788953        1.94801695208290
H            0.07995681168695       -0.56442592627186        2.44142049896558
H            0.82187900678622       -2.15934413653612        2.23065487875877
H           -0.57434591216215       -2.96379120808206       -0.37272037832344
H            1.17837371122666       -3.08583342286448       -0.11514664250321
H            0.54284956688893       -2.19164112820300       -1.51232581753677
H            2.30315025839951       -0.65248582539009        1.01233559366765
H            6.25883646445447        1.47991384862672        1.76308856565748
H            7.38430309148940        1.33858370749997        0.39260662181781
H            6.71334805577695       -0.11613686352910        1.17066325029513
H            0.08698473970888        1.31654734723888        0.96711855497457
