17
 energy: -27.463126319313 gnorm: 0.000793245905 xtb: 6.5.1 (579679a)
N           -2.64673732619144       -0.39064498766711       -0.42590436463061
C           -1.81450835519542       -0.11923590164988        0.74760583888484
C           -0.35466630879361        0.00741158002057        0.36570346232292
C            0.50326795260321       -1.08520669590084        0.47682969518342
C            1.83582976662539       -0.98501663915836        0.09957755664281
C            2.28680610423954        0.22512903228056       -0.39420708222351
F            3.57757144571272        0.33346142093408       -0.75799732449632
C            1.46501586641789        1.32959792071310       -0.52654319732032
C            0.13680924944212        1.20933780521259       -0.14213694892392
H           -2.53631766605713        0.36635083629736       -1.08837244392485
H           -2.31374212942955       -1.23467482763431       -0.87370052949666
H           -2.16680720784003        0.80811056926317        1.21045073952450
H           -1.94910005211890       -0.93752551510061        1.46185911500853
H            0.13102910791663       -2.02531646907714        0.86759409469413
H            2.51114806633637       -1.82601187498954        0.18731744257843
H            1.85659054805117        2.25946796047985       -0.91766952703756
H           -0.52218906171897        2.06476678597652       -0.23396252678582
