42
 energy: -83.610257452771 gnorm: 0.000696494944 xtb: 6.5.1 (579679a)
C           -5.98124883508988        1.16991484214602        0.92254843596064
O           -4.74268878699263        0.55706533356409        1.20321508240056
C           -3.79123212347044        0.64098822991854        0.16959860293867
O           -4.12604418380288        1.24636058851656       -0.87304909330724
C           -2.56708199434200       -0.00194621288992        0.41269462450478
N           -1.65009209391439        0.18833811789135       -0.59795602427786
C           -0.50398258593566       -0.38454389527025       -0.60296081765191
C            0.48697979379670       -0.13096333596675       -1.72071972559699
C            0.09489084937205        1.15345979571077       -2.45997827990894
C            0.51490046376380       -1.32604446376828       -2.69001780302746
N            1.82351872838346        0.02270554166322       -1.11486208512946
C            2.93696977860947        0.29695919692642       -1.81502000090442
O            2.98796771051375        0.51484851897655       -3.02408389309993
C            4.16103955242426        0.33888249906874       -0.98117223686421
N            5.36840972912276        0.64279815235950       -1.36971911233643
N            6.17006813496848        0.55511248426978       -0.26741512661460
C            5.40992428076963        0.20370172639964        0.72151940549649
C            5.81064216077648       -0.03233937517910        2.12682754069868
O            4.12802564681666        0.05120923624700        0.34370223627634
N           -0.13854837742773       -1.34930015773870        0.36152511556612
C           -1.03288610368745       -1.73423632025762        1.32710521827482
O           -0.87752997239372       -2.83012173158861        1.87870152065873
C           -2.07455128303420       -0.64033794239984        1.75181056735867
C           -3.23201239115067       -1.41948333723207        2.46661402296883
O           -1.44583841344693        0.22483463580143        2.56377189975950
H           -5.86480766145175        2.24301363243365        0.72055940729257
H           -6.61927006403474        1.04073137551602        1.79881321888792
H           -6.47001026113740        0.70917273600808        0.05403487819133
H            0.72535147796779        1.31249732774899       -3.33207814515834
H           -0.94369498282951        1.07092633709598       -2.78157571048489
H            0.18497950637782        2.01037095758637       -1.79223599476123
H            1.18967801288955       -1.13317949592703       -3.52248703990083
H           -0.48758280983382       -1.49684817923788       -3.08016712918871
H            0.84859203843602       -2.22200864973795       -2.16906466155899
H            1.91902169422726       -0.19318467318332       -0.13254119579161
H            5.69911330254770       -1.08777237390736        2.37495781859925
H            5.17754896476288        0.54282014706100        2.80126100139580
H            6.84915467474320        0.25894832185431        2.26196202237055
H            0.55999901844159       -2.02762642478523        0.10890792407476
H           -2.79683547635012       -2.11957701721556        3.18184620904586
H           -3.84458706724849       -1.97496107224622        1.75524082114000
H           -3.85625005214326       -0.72049307621850        3.01988750170271
