20
 energy: -37.587192290643 gnorm: 0.000517982196 xtb: 6.5.1 (579679a)
C            2.75154366328194       -1.00581812348816       -2.23618310384856
C            2.17963524124775       -0.02989389721342       -1.29243139530059
N            2.75014705238707        1.03987596002051       -0.79751495635541
N            1.85975428693789        1.62591082644023        0.00708682962679
C            0.77406096070639        0.89418514854758       -0.02109952682475
C           -0.42025362874427        1.22471257078040        0.71505707569371
O           -0.58889394678075        2.17741804873337        1.40168490490342
O           -1.53479132615374        0.31774565820472        0.54495407550230
C           -2.76119193675688        0.68198964506705        1.26137776239699
C           -1.38892517772721       -1.08735262728635        0.15464505281802
O            0.93228363499733       -0.16999696552857       -0.83558096451787
H            3.81152909794790       -0.80768877157752       -2.37826057802376
H            2.60554103160604       -2.01618239458814       -1.85568678251543
H            2.23503756697259       -0.93442500519345       -3.19459841091253
H           -3.58226006377217        0.22455385589269        0.71768759203620
H           -2.69457711603550        0.31218928637800        2.28314943559668
H           -2.83205397705865        1.76722564799722        1.23497604416538
H           -2.28866036596516       -1.59726894374752        0.48636771786151
H           -0.51050908485098       -1.49650156670812        0.64733138273432
H           -1.29741591223933       -1.12067735273048       -0.92874315503653
