47
 energy: -79.524455454417 gnorm: 0.000965583257 xtb: 6.5.1 (579679a)
C           -3.50383419483221       -2.22534573246422       -0.91841410086416
N           -2.31981581121554       -1.43986954112372       -0.54005212664992
C           -2.35426099846256       -0.16123496471162       -0.10509175204670
C           -3.55749991881974        0.74790913674083       -0.40257633823696
C           -4.16369451619287        0.45823870260769       -1.79328048762618
C           -4.62961920866215        0.64119016024419        0.69126880097143
N           -3.07154215304601        2.12178265764255       -0.44184146557840
N           -1.26286492361484        0.32242263819709        0.49660348942408
C           -1.32151393405255        1.50243791248837        1.38085740947222
C           -0.02742970973359       -0.31663708696029        0.45226684688461
C            1.20664691813429        0.44967493094598        0.88539902361000
O            1.31102713007582        1.65135129101506        0.69267564348410
N            2.14850483117263       -0.30229739968700        1.45936488622377
C            3.44362912111274        0.28155186443861        1.81961616037264
C            4.35732339638755        0.27771602795047        0.61397730400762
C            5.14380071813186       -0.83747909140190        0.33580714048111
C            5.95753689550179       -0.86359234959650       -0.78816438983967
C            5.96152357634832        0.24223564882216       -1.61935466643440
F            6.74394897993662        0.22471240404349       -2.70913292344694
C            5.18999606302772        1.36415171883036       -1.37401326238174
C            4.38179425181356        1.37312388806337       -0.24626168916039
C            0.04663077834466       -1.54035842461278       -0.13094275985985
O            1.19179493933795       -2.21488961637768       -0.26773114142444
C           -1.14951082033687       -2.20693665638510       -0.60556325803786
O           -1.14683853848021       -3.34482951730414       -1.02961381590218
H           -3.59250342165490       -2.26262120091342       -2.00257060941461
H           -4.39390998874716       -1.81000953717554       -0.46498844853005
H           -3.34647998000016       -3.23624423676483       -0.54160479962493
H           -4.62510126312119        1.37873701326457       -2.14852827027357
H           -4.93947035506835       -0.30134550957029       -1.76248063710671
H           -3.39154456438868        0.16770409316011       -2.50276505661001
H           -5.48753073446504        1.24481350148987        0.39952654585140
H           -4.95597516023629       -0.38737936298111        0.82604569735991
H           -4.24960772472771        1.01155956017909        1.64156020718343
H           -2.59125551010037        2.28461432556964       -1.31711417607675
H           -3.86353538700593        2.74764603437591       -0.39767450569444
H           -0.98787308020133        2.38815633779397        0.84486034690645
H           -2.33451475478944        1.63924173542785        1.73656104056996
H           -0.66663575011187        1.30969137553966        2.22850785706964
H            2.04279843569775       -1.29822977074745        1.54195975963585
H            3.85867656314654       -0.31767010824292        2.63179073463751
H            3.26634624629199        1.30195120678773        2.17034441333807
H            5.11941034338439       -1.69393268573365        0.99875429718082
H            6.57178410474470       -1.72473667405924       -1.01732622845779
H            5.21978857027128        2.20752889608663       -2.05164404370659
H            3.76015759033688        2.23552253117773       -0.03566608889099
H            1.01124594886756       -3.09002912606183       -0.65995056279967
