13
 energy: -19.066740350634 gnorm: 0.000383989632 xtb: 6.5.1 (579679a)
C            1.67977303186337       -0.48769716660534        0.12224085053551
O            0.74004332433300        0.61585048249848       -0.01160830436037
B           -0.74794099548466        0.57333644449525       -0.06670771823374
C           -1.44331310484896       -0.80814440905497       -0.05864883543474
O           -1.34023067072802        1.74791428394197       -0.12642200786767
H            1.11693057994733       -1.40813909229951       -0.00687796246210
H            2.43383524232305       -0.38747866813680       -0.65626802293195
H            2.12691968114793       -0.44395741757649        1.11464784224937
H            1.17675429918142        1.47857660577842       -0.00866420436095
H           -1.13042526806047       -1.40830136145484       -0.91299486328225
H           -2.52575046188860       -0.69424939475272       -0.09828381548631
H           -1.18966380297539       -1.37162451561156        0.83882192001201
H           -0.89693185481002        2.59391420877811       -0.12923687837685
