33
 energy: -57.818036544586 gnorm: 0.000960873895 xtb: 6.5.1 (579679a)
C            4.26805303055871        1.80200741780997        0.80144945901345
O            3.16632837826529        0.91529776365802        0.53131186075330
C            2.15356631768671        1.37619810861680       -0.16486031344307
O            2.03998099857501        2.47792324823156       -0.62546827735802
C            1.06821581948132        0.31482785602350       -0.32728690690022
N           -0.14819897165470        0.69307712341994       -0.11585641807695
C           -1.16869692678700       -0.17183586560511       -0.34234058849635
C           -2.56233745694657        0.22788503670477        0.00650390444461
C           -2.65332704306880        0.18403504522548        1.54420932570670
C           -2.84229965369233        1.65341677480846       -0.50111604201991
N           -3.46326348561715       -0.74976586445242       -0.57429564584165
N           -0.97480188911731       -1.35114785871380       -0.89463021229952
C            0.28629641034767       -1.85425878253346       -1.29163857777100
O            0.38592558515744       -2.82817114601884       -1.97164588150622
C            1.43673720580930       -1.09686451194931       -0.64991494070560
C            1.63090684432209       -1.80878821773658        0.73050001281402
O            2.59506655157264       -1.14445496482476       -1.40844515028785
H            4.03558630637525        2.39973137643332        1.68428523062850
H            5.13159226356248        1.16754369760003        0.99022166373629
H            4.44179136534607        2.45327310255183       -0.05704854718361
H           -1.90649520790202        0.84298128524569        1.98448520629562
H           -2.49150410744298       -0.83256384889956        1.89713915973578
H           -3.64594480741725        0.51521805563910        1.84299476064270
H           -2.12762981111844        2.35015502087662       -0.06587008746891
H           -2.76153335266132        1.68548240587623       -1.58603929170819
H           -3.85110641126705        1.93609602910684       -0.20873965472530
H           -4.28422224686034       -0.86468848932806        0.00229587988402
H           -3.76158717985782       -0.45273784329314       -1.49287877292800
H           -1.82212166325515       -1.88007091208915       -1.11792005440914
H            1.85250084502790       -2.85680884682096        0.54091302289863
H            2.47155171897677       -1.34086918535885        1.23731577850163
H            0.73310022748945       -1.72306371076244        1.33657478053167
H            2.76787034611352       -2.03905729944474       -1.73420568245882
