38
 energy: -79.615119018355 gnorm: 0.000731540991 xtb: 6.5.1 (579679a)
C            2.37012562290876        2.63870773056983       -2.52196823306212
O            2.04834464325321        1.69289591989873       -1.50666349193340
C            2.76072918794372        1.78612588097890       -0.36566664360184
O            3.61120440970078        2.64055435179691       -0.21386369110979
C            2.40033367878073        0.74075230124080        0.61531579336914
N            1.35302159707666       -0.08340354948258        0.29121751110102
C            1.06672521396432       -1.05695418452272        1.12966565784871
C           -0.06935418293539       -1.98044180992610        0.70217822901255
C           -0.66027786802797       -2.72096445382872        1.90447114872358
C            0.47898972426386       -2.96450591207242       -0.34264425090187
N           -1.09230733658755       -1.12673452115876        0.08329861333317
C           -2.25261350021963       -1.57797131843567       -0.40279593990473
O           -2.61356122380263       -2.74875140778334       -0.42785822114504
C           -3.14299314398353       -0.49620789421164       -0.91398937147380
N           -4.31497682457212       -0.64361194830173       -1.45139351543470
N           -4.78868371380586        0.60852902406627       -1.71508983766093
C           -3.87794059411232        1.44175390101259       -1.31973744985773
C           -3.92615415385258        2.91939457892450       -1.37753210368226
O           -2.81008214859102        0.80882895727014       -0.80529143490429
N            1.67697495516599       -1.35186228280792        2.27397929791027
C            2.70396408417639       -0.56592917261510        2.67690052368346
O            3.34218709944881       -0.72988339330020        3.73508567200043
C            3.07774244284522        0.53950595758033        1.78995713635329
O            4.11984527413656        1.28651159046594        2.21573261894945
H            1.75849644047004        2.39363597283177       -3.38881698724711
H            3.43075678319744        2.57365680980540       -2.78239141768484
H            2.14849457528586        3.65434839802576       -2.18209696292874
H           -1.40696894926916       -3.44563872672980        1.58492659153659
H           -1.12152452804916       -2.01063903558921        2.59005940815699
H            0.14024656348408       -3.24182587700090        2.42921969014321
H            0.87317475649558       -2.41021829931790       -1.19402263513820
H            1.28270748558381       -3.55098870853339        0.10088900069010
H           -0.30395214577581       -3.63908092575167       -0.68547424050582
H           -0.85294480321380       -0.14807218198025       -0.01576281500664
H           -4.91026514696275        3.23703097391297       -1.71290993016537
H           -3.72047877936261        3.33884802865693       -0.39345551940180
H           -3.17345064262628        3.29476668084069       -2.07005306576128
H            4.39446014756181        0.89783854546167        3.07307786569221
