43
 energy: -83.883235066925 gnorm: 0.000629373553 xtb: 6.5.1 (579679a)
C           -4.28079497873588        3.59806878521473       -0.18894479223635
O           -3.77211885915092        2.37810044264303        0.34776190395161
C           -2.67312737643080        1.87903440845282       -0.24972233894266
O           -2.14897331081014        2.45116443291244       -1.18448922449706
C           -2.19002647785249        0.59085776557316        0.33036032388528
C           -2.45766839866975        0.19435744730830        1.64816362240363
O           -3.25726801079213        0.93387854273566        2.53090631875750
C           -1.73018505049172       -0.89507586413164        2.20743747825917
O           -1.76792012140943       -1.30025223167042        3.37941213451322
N           -0.80100071315360       -1.48072625502699        1.32524116694498
C           -1.05668442307074       -1.43367231439522       -0.11046300409444
C           -2.16603675559703       -2.44147843197597       -0.48193463517756
C            0.29029272242037       -1.73186670524166       -0.84822654934836
C            0.84299012403825       -3.13480523119014       -0.57469495644463
C            0.14114173391973       -1.51027748540885       -2.35747356272411
N            1.21814081272661       -0.73716408988432       -0.29716550873359
C            2.49466422386499       -0.56935343667667       -0.64997110579454
O            3.09410821346647       -1.17556182039818       -1.52819218516543
C            3.13339781771179        0.50081994278160        0.17367717477816
N            2.55793032345072        1.19172633006454        1.10979666907527
N            3.49552490145969        2.05864941480556        1.59351198429690
C            4.58156326161199        1.83879193557075        0.92082306594170
C            5.88665674623928        2.52052410288353        1.06536653401806
O            4.41885599489483        0.86775484414642        0.00855246264077
N           -1.46246286365167       -0.10911400488030       -0.52585055424435
H           -3.50946408052292        4.37325510092100       -0.17464689426228
H           -4.61561512756852        3.44700239362956       -1.21846879974562
H           -5.12085184793085        3.89470738467047        0.43515792917590
H           -4.08502614883942        1.18843088715813        2.10605721175889
H           -0.50287618807644       -2.39044133309642        1.64875706802819
H           -3.08170499392621       -2.16669682856194        0.04037672247261
H           -1.88929931775885       -3.45166803834947       -0.18830735516292
H           -2.35756848712182       -2.41525535263317       -1.55240806164013
H            1.80522074037146       -3.25439808471936       -1.07177738618263
H            0.98388098711017       -3.29851226946848        0.49221445527436
H            0.16253567950454       -3.89031860876990       -0.96177657840192
H           -0.30443575917053       -0.53295945769003       -2.54646574855976
H           -0.50039615878545       -2.27980593532734       -2.78261577637506
H            1.11181396515411       -1.56487567233494       -2.84750998986823
H            0.86443115471502       -0.20718558743243        0.49481345217504
H            6.17202135159376        2.98572255107405        0.12249128099881
H            5.81837855149803        3.28013316268151        1.83980218012236
H            6.65795714376081        1.79848216403717        1.33062686812983
