42
 energy: -83.622315923656 gnorm: 0.000696382201 xtb: 6.5.1 (579679a)
C            3.89424583954606        3.51615442109420       -1.96870478558787
O            3.27720896347507        2.85924217941496       -0.87823497999919
C            2.69085089515183        1.65369272499759       -1.16815563121693
O            2.72589918013593        1.23186715047331       -2.32728972522240
C            2.05411236676491        0.97783029890677       -0.04629730829552
C            1.98537339538945        1.55120823677314        1.26161618204389
O            2.60894395833643        2.58527047542341        1.65580255895717
C            1.03381040833431        0.88157492720834        2.19409437427697
O            0.70092931162663        1.33096873502425        3.30049410811066
N            0.40467823749065       -0.25594732473096        1.72173394918691
C            1.02667689243423       -1.04855587079563        0.66326469896616
C            2.21276490713503       -1.84163874141781        1.27558915929829
C           -0.05803984802905       -1.99735598428605        0.04904703440482
C            0.52004901846915       -2.71822967012215       -1.17672559336757
C           -0.60384334627083       -3.02764525367666        1.04828988768276
N           -1.13642943180536       -1.09942067771470       -0.37075998537194
C           -2.31288963888901       -1.51513131832324       -0.92305721859225
O           -2.51695995695772       -2.66313358632469       -1.36118253208315
C           -3.31961859171908       -0.47240895540912       -1.01107428687364
N           -4.52703618720677       -0.56357584573867       -1.54701284270638
N           -5.11402135793612        0.66257700252664       -1.39730335588840
C           -4.26114973789295        1.42504151039898       -0.79261223131917
C           -4.44651430253690        2.84527451085548       -0.40805293286626
O           -3.10094496242054        0.79025317375389       -0.51378049928306
N            1.49159291631929       -0.21052523962487       -0.39978141572889
H            4.34304898489713        4.43252857635243       -1.58479831906746
H            4.67372182483128        2.88926128875209       -2.41662957699453
H            3.16253353995428        3.76659641296302       -2.74557912580919
H           -0.07149314422853       -0.78062983932049        2.43873443170379
H            1.88193881577475       -2.46066295005958        2.10641030060390
H            2.68005862465124       -2.46968978937931        0.52048320598493
H            2.95448457796460       -1.13328637792721        1.64485814012059
H           -0.25983186861115       -3.26769154144978       -1.70133313217191
H            0.96673211039975       -1.98942582651252       -1.85548365767544
H            1.28543918802604       -3.42834604297101       -0.86766740863187
H           -1.02663111564597       -2.53924322130987        1.92490566890256
H           -1.38595058106785       -3.62196417089260        0.57615183048489
H            0.18736335382343       -3.70218516414060        1.36925139513613
H           -1.14468077401541       -0.20122141794176        0.10064149636168
H           -4.33829055220809        2.96378421438277        0.67029206057625
H           -5.43921628454579        3.17242015000977       -0.70702824020054
H           -3.69891662894316        3.47236782075132       -0.89485669784888
