42
 energy: -83.586629296198 gnorm: 0.000364213413 xtb: 6.5.1 (579679a)
C            6.44824023550813        1.48029747024164        0.79055028912580
O            5.32181654992183        0.75674475623495        0.31384002611771
C            4.10981722526811        1.12669561265714        0.85735199837592
O            4.08073600133629        2.02283330116809        1.69241364033298
C            2.96413111698232        0.37565489954327        0.36552477012319
C            2.97451758370320       -0.57954911024728       -0.61540678024055
O            4.07425986253782       -0.94606014074886       -1.33693493756450
C            1.71398362802477       -1.46330174485109       -0.92750808572289
C            1.55500160840296       -1.49467250322116       -2.50168687032565
O            1.82456677281023       -2.66046396123642       -0.38920525007285
N            0.49877560275525       -0.69965000459415       -0.45234318576757
C            0.65849347224047        0.21409819216893        0.45474606781338
C           -0.63555855786083        0.82242342880058        1.03996194278682
C           -0.71415187236721        2.30714792345010        0.66064611282889
C           -0.64401963728689        0.65613889341757        2.56453642592872
N           -1.74362919681593        0.08559510759207        0.44091880721108
C           -3.04025644139040        0.30241839523224        0.64205190268003
O           -3.52699284365690        1.14457152543870        1.39778187120517
C           -3.88008367196649       -0.62583028753301       -0.16673089822594
N           -3.45150305408428       -1.59116469450096       -0.92787098312025
N           -4.55532924685650       -2.18274120851791       -1.47626520758534
C           -5.58290600236477       -1.54334795561162       -1.01695711905387
C           -7.00989658112488       -1.79682956248097       -1.31937991667214
O           -5.23138082202300       -0.54993610211896       -0.18310592306128
N            1.76052241004543        0.76454453722301        0.96778376893491
H            6.53862971856679        1.38597205888598        1.87757514451340
H            6.36331675950460        2.54134082127262        0.53514999320439
H            7.33013316585437        1.05811188387693        0.31172796702809
H            4.86736965062964       -0.45045959634131       -1.08521020449114
H            2.40458765480094       -2.01400704358828       -2.94430815856260
H            0.64190341605070       -2.03836035599434       -2.74474508307361
H            1.49130701901713       -0.48450570659023       -2.90723679259242
H           -0.79135563032087        2.41357685596863       -0.42161726782891
H            0.19782117700738        2.80130377378653        0.99786371738236
H           -1.57448235991724        2.78938237958733        1.12416474680256
H           -1.50088489923220        1.16066328725419        3.01049001013131
H           -0.68091453739007       -0.40148856489998        2.82857542408327
H            0.27363034166356        1.08733177625333        2.96650720181481
H           -1.42154546654277       -0.61705306473130       -0.24200869503233
H           -7.09689559866724       -2.66754481585222       -1.96417764353158
H           -7.44641180576157       -0.93252275978438       -1.81935103600673
H           -7.56536374701506       -1.96812269663116       -0.39811278990994
