42
 energy: -82.941154679005 gnorm: 0.000674186903 xtb: 6.5.1 (579679a)
C           -6.84505385554275       -0.67293156945607       -1.07130545919361
O           -5.62871543503728       -0.92653448176244       -0.36701830263496
C           -4.66293235708824       -0.01785923416498       -0.50908482789535
O           -4.79509459987079        0.98085011777499       -1.18773530624483
C           -3.41588881053767       -0.33738138393958        0.23236541504976
N           -2.45387113069465        0.59823080772725        0.08091874097434
C           -1.29424156080433        0.46553388254308        0.65365461043275
C           -0.25775689640189        1.55257809452950        0.50118840139661
C           -0.25785653033269        2.38659131479393        1.79346156506447
C           -0.57229619007753        2.42158687560963       -0.72043836899457
N            1.04794587906599        0.90472041412830        0.32245558523119
C            2.20715238614470        1.59186323820300        0.23838114830049
O            2.34505644595289        2.79494540230311        0.37051394940910
C            3.36352345758223        0.70181407093591       -0.04276149742885
N            4.63567747645837        1.10762080700256       -0.17905530543977
N            5.36496862954594        0.08559982127930       -0.43789277565753
C            4.53696285819865       -1.08982482633489       -0.48604721738353
C            4.95095128049986       -2.08300029881029        0.60175833773709
C            4.56974645042620       -1.70788857405994       -1.88583061220327
O            3.22302813807069       -0.59284845490003       -0.21114475128489
N           -1.00141071694274       -0.59499046662217        1.45219889976830
C           -1.87719659028794       -1.63915548472508        1.70653265352676
O           -1.54078688073393       -2.55383516606552        2.43093341304827
C           -3.22851405409046       -1.52268364401461        1.02883884350511
O           -4.06050105519452       -2.41134486195397        1.19536622573474
H           -7.28636780427704        0.26884665467612       -0.73574829941427
H           -7.51368809006957       -1.50280316464512       -0.85080832207822
H           -6.65279940157591       -0.61646576654474       -2.14566893109248
H            0.43650745857621        3.21954474010222        1.70486769721837
H           -1.26030612631055        2.77588655342754        1.96742911729888
H            0.03517542866465        1.76315808546844        2.63635880399690
H            0.15963600159202        3.22216689471487       -0.80543140855639
H           -1.56681793797062        2.85143006459522       -0.60883744602028
H           -0.54927447764421        1.81353617194284       -1.62312956094755
H            1.07047779472911       -0.07847518186601        0.10753418461412
H            4.90746757438092       -1.59399914904767        1.57236622242341
H            5.96529716589229       -2.42255548006125        0.40773857134613
H            4.26995120655123       -2.93035450286334        0.58939516633774
H            4.24310916230426       -0.96826381288875       -2.61370001984546
H            5.58558687607738       -2.02195290556206       -2.11272439282788
H            3.90313278105361       -2.56627632659942       -1.91386895536806
H           -0.09998695027423       -0.65508327487502        1.89727620809449
