42
 energy: -82.953827540844 gnorm: 0.000815000318 xtb: 6.5.1 (579679a)
C           -5.10406387201380       -1.71410570191173       -2.03039251501411
O           -4.55712857182513       -1.08555191219497       -0.87289983393793
C           -3.31986885817475       -0.59162991291996       -0.99587056077727
O           -2.68970452781802       -0.66888266686352       -2.03484638265501
C           -2.79284116535526        0.04453064746297        0.23135540507298
N           -1.55880702883471        0.57436295203630        0.06560100257961
C           -0.93490401362056        1.14740509198433        1.05299506285064
C            0.41286676943023        1.76492441792165        0.76036183307523
C            0.24524854025363        2.76759137216425       -0.38689662256281
C            1.08468527981545        2.40886254202902        1.97114358210706
N            1.30761070284748        0.69834622423550        0.25714546239549
C            1.30102999892271       -0.49884971103351        0.82600049452661
O            0.49916338597740       -0.89683571992797        1.63841324396295
C            2.43576031986309       -1.47622947859961        0.31109493582564
C            3.17957808722145       -2.01882258673106        1.52805369020956
N            1.78113470053232       -2.46990758561941       -0.46446869719572
N            2.19545784620130       -2.37680539035239       -1.69175021311745
C            3.10280593298973       -1.40890977171351       -1.75784156516875
C            3.83482074961845       -0.97999175364773       -2.95739381584052
O            3.30322820392897       -0.82669798507265       -0.59080900788515
N           -1.50815184581395        1.28322263066688        2.28093477771437
C           -2.76134813459176        0.80127857626211        2.60379772484223
O           -3.20441130784128        0.96012171480574        3.72761686805158
C           -3.49707524800040        0.09754214477474        1.48193872579406
O           -4.61656635493178       -0.36944538776096        1.69796725115573
H           -5.15435663775785       -1.00423766877015       -2.86010523146546
H           -4.48648671105993       -2.56594094099588       -2.32737959773566
H           -6.10424860096235       -2.05052205552135       -1.76329566221952
H           -0.39489811282901        3.58733207931990       -0.06593155694472
H            1.21450634687483        3.16757141402736       -0.67540810053455
H           -0.21055641621882        2.27027932373692       -1.24289653378382
H            1.21700587031722        1.67794558607623        2.76746284037901
H            0.48975006316354        3.24464595031849        2.33449871418690
H            2.06407639026443        2.78315047336409        1.68032963215139
H            2.09880005926762        0.99745331851883       -0.28677231268137
H            3.91522305351145       -2.74905501965705        1.19950326941997
H            3.68225095368003       -1.19926452782079        2.03533709774795
H            2.46082094340370       -2.48511968460280        2.19892570445982
H            3.58266327217311       -1.61723147432050       -3.80177618430607
H            4.90765815077381       -1.01947706872822       -2.76301485512703
H            3.58752696805757        0.05720367787884       -3.18980736170020
H           -1.00825618146120        1.73974986716937        3.02559429216043
