47
 energy: -80.235441728727 gnorm: 0.000546223557 xtb: 6.5.1 (579679a)
C           -4.48134923024826        2.49454761501000        1.06996722035329
N           -3.24854262017798        2.11186150478082        0.37716159433154
C           -2.74836354836481        0.83637289450163        0.40636777333820
C           -3.44148066520664       -0.29958685859341        1.15057800417647
C           -4.56393289891551       -0.85762159342448        0.26264654452650
C           -2.42247596221056       -1.41728111931592        1.42980224480370
N           -4.00562083992591        0.16998034835438        2.41148449848407
N           -1.67356543080900        0.51115394723667       -0.24520524133807
C           -1.00088257382578        1.44374613863637       -0.98108664864825
C            0.20252332696407        0.99729181975215       -1.72582012980772
O            0.85809158330587        1.77817325821934       -2.42623985905195
N            0.50909601887878       -0.29708362929156       -1.58136169642213
C            1.63108409546430       -0.90899185599300       -2.27758494524863
C            2.85788035232157       -1.04025707833833       -1.39853876297822
C            3.19905017798831       -0.05240602236123       -0.47871179114922
C            4.34667260248792       -0.17315587049612        0.28988921509202
C            5.18775849209858       -1.27802389526484        0.15510960283307
C            6.41442817812027       -1.41625562874363        1.00415064231059
F            5.69194105118624       -2.80977507883897        3.60311649550505
C            4.84282854500166       -2.26195907967929       -0.77084310144262
C            3.69203134284578       -2.14628031638298       -1.53709015088882
C           -1.41794785400060        2.74724448540671       -1.02976502631125
O           -0.78489872786560        3.69704055972563       -1.73132210045456
C           -2.60791048696106        3.15511504805622       -0.29546752782454
O           -3.04831709589552        4.29832449247491       -0.25766601626113
H           -4.27654686551227        2.66134783572292        2.12642584482665
H           -4.85498829752597        3.41471144101683        0.62047123025794
H           -5.22739266788528        1.71411322247480        0.96931792845191
H           -5.01393859531976       -1.72356700445119        0.74587348885513
H           -4.15540814512346       -1.16446776536802       -0.69931321074692
H           -5.34074741865537       -0.11455703792799        0.09230046491010
H           -2.05093980653037       -1.83448954624259        0.49544632445455
H           -1.58128531398441       -1.02581893458049        2.00016443440872
H           -2.90406568227159       -2.20609006437748        2.00505951559269
H           -3.26543325766825        0.29176846737568        3.09106254788506
H           -4.63679143160783       -0.53138026916561        2.77069292918186
H           -0.09080962868320       -0.87436340250849       -1.01120707923462
H            1.86349474564465       -0.27767440814496       -3.14404783942299
H            1.31522215919833       -1.89071281767421       -2.64067139342208
H            2.56370438492690        0.81872996930772       -0.36221444681226
H            4.59467747676146        0.61069020137684        0.99915966566100
H            7.17335499602768       -2.01416474419753        0.50006864441548
H            6.15398493626015       -1.91975952917518        1.95016697848525
H            6.83314125987466       -0.43961906405285        1.24664496420757
H            5.48179204319610       -3.12936410217502       -0.90237603573844
H            3.44385029693514       -2.92053983076145       -2.25481662934945
H           -0.01297202039570        3.27303129805318       -2.19311016470815
