33
 energy: -58.562775055335 gnorm: 0.000649850750 xtb: 6.5.1 (579679a)
C            4.51841000372388       -1.31339462247314       -1.77314247887892
O            3.50813256659160       -1.15341964453308       -0.78500595315696
C            2.38444559671584       -0.52486963157489       -1.17872088884631
O            2.25690457681768       -0.13412896502477       -2.32544661749176
C            1.35142479796153       -0.36946682376324       -0.11703237207184
C            1.53340372198138       -0.78227639869710        1.20583283043728
O            2.74622039050930       -1.26993287196395        1.70531389489058
C            0.42960317271663       -0.81626872015424        2.10318380741703
O            0.48963036511342       -1.26996475389447        3.26514783433770
N           -0.77747228839653       -0.41395236844779        1.55665214191202
C           -0.77537214751387        0.51472261064338        0.42768045161623
C           -0.48148491126119        1.94508451990739        0.95142283307046
C           -2.17772275046375        0.41138822557754       -0.24474756579449
C           -2.35766152715887       -1.01702945215939       -0.77276443228723
C           -2.30632657985983        1.40828919461973       -1.40603255716514
N           -3.20558635708412        0.65297499133755        0.77129267512383
N            0.22410517028083        0.17838670386281       -0.56315375947308
H            4.86611767431061       -0.33832263500524       -2.12725726384542
H            5.34095422056902       -1.85268574459516       -1.30582816188184
H            4.13634472498125       -1.88381840387131       -2.62562856195922
H            2.57414113054815       -1.50344344001361        2.63225764635634
H           -1.52215849712719       -0.24072426736530        2.21806285863357
H           -0.41029520133686        2.64202868952726        0.11883925341574
H           -1.26009447248998        2.27757606265793        1.63433106786710
H            0.46971110439690        1.94271457500606        1.48405590705414
H           -1.57446691904784       -1.24360805982758       -1.49816503124218
H           -2.29214594282389       -1.73073633079033        0.04986903867293
H           -3.32844594263792       -1.12623652752029       -1.25531326586087
H           -3.20832784012475        1.20080174362924       -1.98104203421002
H           -1.43806730294135        1.32147354505392       -2.06186426431866
H           -2.37025490549424        2.43027850075942       -1.03512266806798
H           -3.22955225735189        1.63655203227827        1.00810322533484
H           -4.11411337410417        0.42200626681499        0.39357041041318
