42
 energy: -83.655901331558 gnorm: 0.000761186034 xtb: 6.5.1 (579679a)
C            4.26343003872988        3.87091261323868        0.27106704195449
O            3.97897988008382        2.53638749054350        0.67460606553026
C            2.98665328585350        1.91277623855153        0.01033594185227
O            2.36675598662399        2.47024627506995       -0.87543028389286
C            2.75766807276821        0.52020521444725        0.45375117906876
N            1.72088533075833       -0.11548461933350       -0.17366159572428
C            1.49110242386250       -1.37449083311323        0.13892709517726
C            0.34419998127392       -2.04205150889715       -0.61997243516939
C            0.69896843957260       -2.01274013269350       -2.11939541411127
C            0.14852075622442       -3.48367315454432       -0.13728035155576
N           -0.85468986885013       -1.25199021077871       -0.34538713884466
C           -2.06229977378397       -1.48025432297055       -0.99640636953960
O           -2.27397255017279       -2.51798889481910       -1.66467427011464
C           -3.03863223996369       -0.47383491204049       -0.78192752361329
N           -4.27905792659566       -0.45784283184895       -1.24165597534980
N           -4.92236264925111        0.60079699104666       -0.83539428601494
C           -3.99961150734633        1.38215431321881        0.00446820517694
C           -3.80485087442241        2.78326745791901       -0.60041296285685
C           -4.56266493998405        1.48596530108632        1.43386932799300
O           -2.77311344405000        0.66619665206157        0.01024675437893
N            2.16017930975056       -2.11922645025668        1.02090043318594
C            3.18833985697744       -1.55733095413043        1.69250194718877
O            3.88409640971572       -2.15130347806891        2.54606389125555
C            3.49875515081915       -0.15947642791168        1.38602141638887
O            4.54818243050049        0.35042078126855        2.07573511030392
H            4.61164766587633        3.89121286574785       -0.76591679821587
H            5.04532750059239        4.24181497703015        0.93141863314764
H            3.37141095763470        4.49846469417781        0.35850090321087
H            1.62447260352219       -2.56360135600570       -2.28638588843628
H            0.84395551430510       -0.98062462014314       -2.43969407669685
H           -0.09190734195410       -2.46696023332420       -2.71496608173114
H            1.07869622842038       -4.03888663123205       -0.25512637465147
H           -0.12547287734167       -3.48809967671676        0.91814829228791
H           -0.63405438538501       -3.97886849637516       -0.71033978836552
H           -0.66996301724928       -0.28998352151105       -0.08504762065355
H           -3.38018951661514        2.69068530670076       -1.59886250265058
H           -4.76807561875338        3.28431288827465       -0.67047828629399
H           -3.13540934358177        3.37742865344871        0.01942335548478
H           -3.87263859434855        2.03313973853514        2.07413179436144
H           -4.70729433991951        0.48527270846244        1.83867561590015
H           -5.52052207975153        2.00159417384640        1.41311360717907
H            4.86455506549388       -0.38280306795479        2.64650941342898
