16
 energy: -34.127702103188 gnorm: 0.000521077236 xtb: 6.5.1 (579679a)
C           -3.47253467699003       -0.33792010833662        0.66915586819484
O           -2.43160917464121        0.53632778205914        0.26585281553646
C           -1.32533853644918       -0.11741480045335       -0.28292460342246
Cl          -1.51902849568410       -0.42380796964490       -2.06163412669783
C           -0.06431725948100        0.28618047716703        0.13605805325011
N            0.25763927203427        0.80249554973871        1.33049467581309
N            1.63933571684247        0.77801537675293        1.39931527152268
C            2.07444468733457        0.27148485520764        0.30183065633986
C            3.48864433507232        0.03416742748449       -0.09154569627956
O            1.06971487839250       -0.07214126207646       -0.55998083596104
H           -3.94700172617862       -0.81044565562781       -0.20023077881908
H           -3.09374542863644       -1.12549627542645        1.33278686182519
H           -4.21586983506875        0.25854938529855        1.20148475995253
H            3.72697226488000        0.56779920978520       -1.01258629296348
H            3.66611629456657       -1.02840402010438       -0.26320735397326
H            4.14657768400652        0.38061102817631        0.70238572568195
