20
 energy: -38.303407046328 gnorm: 0.000889572546 xtb: 6.5.1 (579679a)
C           -1.95626594715351        2.30293274035977       -0.32937446604098
O           -1.89867070425218        1.19192211406984        0.55896676596629
C           -1.05632289600890        0.13545189223956        0.15832295229608
O           -1.56298313522961       -0.61086438499490       -0.94687207452949
C           -2.38979586441954       -1.69545385520744       -0.56893248454907
C            0.31658841097101        0.29972106784885        0.26885278537729
N            0.96762172154689        1.16751968096462        1.06732106438462
N            2.29961618518660        0.78931945729981        1.03830662698660
C            2.39897740291255       -0.23657611954551        0.27194741969987
C            3.63048050550163       -0.99562313287116       -0.07545038276500
O            1.19743687343561       -0.62639234888168       -0.26180450742008
H           -0.97916919251740        2.80107021122240       -0.40773827328363
H           -2.27712993460440        1.99450003032783       -1.33372638824541
H           -2.68567933793826        3.00986382511862        0.07330560733213
H           -2.67149373339350       -2.23045560244188       -1.47919953102377
H           -1.86014081515452       -2.38503972032625        0.10407027938998
H           -3.30168382663410       -1.34767918159599       -0.06437234339094
H            3.53566241200809       -2.04119923661147        0.22097339075850
H            4.48264945407449       -0.55604625513789        0.43856504855200
H            3.81030442166899       -0.96696918183721       -1.15128448949565
