43
 energy: -76.181886990557 gnorm: 0.000423172681 xtb: 6.5.1 (579679a)
C           -3.87121838760536       -2.03342571389556        1.05178520203572
N           -2.62950277972144       -1.48196998239748        0.50432718627370
C           -2.41878359927115       -0.15432784358189        0.22505627512683
C           -3.49806402079583        0.90347089060378        0.43043196410703
C           -2.88673053807594        2.29886613933888        0.22180673104415
C           -4.62637963954765        0.68939856351048       -0.58828122886839
N           -4.04516255637879        0.80547733348406        1.78285772421958
N           -1.29803628499472        0.26245598111187       -0.27259236595581
C           -0.25837605118302       -0.58301334332049       -0.54105142156001
C            0.94991071061626        0.10888749634024       -1.10318646807993
O            0.92738862139584        1.30118729824454       -1.38693002867085
N            2.04317260319193       -0.65782555459690       -1.28270883800705
C            3.29107063888371       -0.07710171100630       -1.76623486261126
C            4.16927661320894        0.35360226022746       -0.60991099714466
C            5.31993499487243       -0.36294452079813       -0.29244017787580
C            6.12249843491289        0.02236888386966        0.77364172033697
C            5.74509281240493        1.12976147394014        1.51006419049032
F            6.51386113874414        1.50937383871835        2.54469263105625
C            4.60814640413913        1.86438773402656        1.22346064303931
C            3.82045266087918        1.46722512149932        0.15316490971484
C           -0.40910341425137       -1.91581709413619       -0.29116995949066
O            0.53563829009418       -2.85195363628483       -0.52399816190425
C           -1.65367422547998       -2.42539240262046        0.25021281654960
O           -1.82305751995171       -3.62475674852843        0.46928005621128
H           -4.48485407675264       -2.42026172614402        0.23788442602754
H           -4.40894703667929       -1.26602466950650        1.60108681388763
H           -3.61070349531674       -2.85379623047459        1.72094354091727
H           -2.50703745774703        2.40118401559493       -0.79442286239261
H           -2.06647107626841        2.45780663919401        0.92050339712019
H           -3.65048895480015        3.05497061261586        0.39566187477784
H           -4.21927504656754        0.67441859397087       -1.59885030857307
H           -5.14798635776599       -0.24731816193343       -0.40501161533272
H           -5.34492701143276        1.50410251740268       -0.51118557890014
H           -3.34395374606463        1.08666152031875        2.45492948494551
H           -4.82721238734992        1.43902619126288        1.86809772710040
H            2.06958554156176       -1.61662689271671       -0.97958806773668
H            3.04021468783886        0.78478020276204       -2.39360148747277
H            3.80028776410847       -0.82740905276480       -2.37523272398097
H            5.59860123059174       -1.22850441796050       -0.88181298184171
H            7.01994295136905       -0.52550822082368        1.02882692008352
H            4.34989456500892        2.72669485388791        1.82436094309396
H            2.92682193429768        2.02953652401534       -0.09304477382393
H            0.17815106588055       -3.72166776245262       -0.26101226793493
