42
 energy: -82.969690209611 gnorm: 0.000912602218 xtb: 6.5.1 (579679a)
C           -2.37255233614763        3.96703920798529       -0.90960044401896
O           -2.14213740183574        2.56167795753751       -1.08828965517373
C           -2.67237735572176        1.74837017212673       -0.19506876332156
O           -3.31228769414927        2.09154709783676        0.76538676913910
C           -2.36401518454279        0.29843720341703       -0.50503378832072
N           -1.15843937800790       -0.04068119872152       -0.75203465612763
C           -0.89350073677480       -1.40948556800713       -0.93062517581484
C            0.54861528125929       -1.84432448719534       -0.86446701003040
C            0.66973627918484       -3.02671173308359        0.10815787871468
C            0.98514000764048       -2.25351624096970       -2.28256268869677
N            1.35282108968083       -0.72325222247473       -0.39678964305396
C            2.69033889156231       -0.77548774756950       -0.24106205631474
O            3.39243534760798       -1.74769607627485       -0.45763349129446
C            3.21410152603707        0.52794865913842        0.24349532110317
N            2.50937436382962        1.59072047225372        0.49225774311929
N            3.38002999969281        2.54963460082239        0.91509024658518
C            4.56147930244107        2.01029400172075        0.89653041444545
C            5.84879133996698        2.63858615023211        1.26614126127574
O            4.52152192218931        0.73550853682493        0.48142220874990
N           -1.78493872994314       -2.28566505653972       -1.20399821764536
C           -3.12811404956784       -1.90360239111855       -1.25954514708843
O           -3.95240959421133       -2.46853460444120       -1.92947206412958
C           -3.47593272261788       -0.71930598431342       -0.36401836290453
C           -3.48565745284601       -1.16850380824464        1.11817205891292
O           -4.71510138830846       -0.18509996828362       -0.72417156501208
H           -2.11137574887560        4.26184633062911        0.10836892236885
H           -1.73882775717544        4.47626698149005       -1.63176733310135
H           -3.42330728384067        4.19445548661153       -1.09772077705973
H           -0.00732741100151       -3.81927375901084       -0.20526189209448
H            1.69025264777162       -3.40423102112360        0.11054144005627
H            0.40378744590318       -2.70610553421324        1.11400700044369
H            0.31807776975303       -3.03020288759576       -2.65210980409147
H            2.00411100593916       -2.63445092945064       -2.25707933084918
H            0.93974096625962       -1.39326399906051       -2.94840142052129
H            0.86934706918615        0.14530224528020       -0.20414821775954
H            6.50534674098886        2.68031767967565        0.39726090351268
H            5.67243941923112        3.64543840538389        1.63543751155902
H            6.34461700932086        2.04705674261608        2.03473936012039
H           -3.70797729229547       -0.30603715702450        1.74306415750970
H           -2.52106310427591       -1.58688048611384        1.39401390909689
H           -4.26345914486869       -1.91744614287526        1.24756677004820
H           -5.19130365844115       -0.82068892787933       -1.28356037233704
