42
 energy: -82.977074466885 gnorm: 0.000461796853 xtb: 6.5.1 (579679a)
C            5.89026928468827        1.82281245401422       -0.76797956599551
O            4.75282161697229        1.01910462885112       -0.48345573673544
C            4.68530382022171       -0.17096723519750       -1.15412543885712
O            5.56313529593130       -0.48672095731119       -1.94056915251727
C            3.49967422856819       -0.93848882967824       -0.80633940427045
N            2.64948250586236       -0.33500921387130        0.09874224800160
C            1.57964446924733       -0.92348102584741        0.48756184581484
C            0.66772610529808       -0.23356452131603        1.48704102593525
C            1.28497192789847        1.10614596358608        1.89051020362558
C            0.42244760789147       -1.09319260143041        2.73047959298987
N           -0.62148036539975        0.08769832260031        0.82426336171122
C           -1.60842043135087       -0.77464881694899        0.57338161429300
O           -1.63137737064704       -1.97042464616519        0.78668124952149
C           -2.78522625662747       -0.08024704225667       -0.06176318771907
N           -2.85422833467727        1.14832697779812       -0.48455625200260
N           -4.10542566011097        1.27979957112839       -0.96302240147598
C           -4.55026444396129        2.54391150030072       -1.51004169497770
C           -4.76190442776597        0.14627914723743       -0.82167110847753
C           -6.15183709850593       -0.16279717886713       -1.19274659012253
O           -3.94979129008834       -0.72434247343200       -0.26186254157650
N            1.22815516817412       -2.17473707940141        0.02981771943393
C            1.96320979557952       -2.88254129587866       -0.88763580755284
O            1.57081260986490       -3.98265682578076       -1.26591053588778
C            3.23762387826654       -2.21895479657137       -1.36524336662580
O            3.94822655298467       -2.81604245003778       -2.19073605390640
H            6.81337941478818        1.29849894636129       -0.49907404102703
H            5.79504885518373        2.72940006429650       -0.17214975959141
H            5.92638145962811        2.08183165512297       -1.83111109015019
H            0.62641731211622        1.63012374000785        2.57982937949914
H            1.45202960654825        1.72450020883648        1.00964142942577
H            2.24434621540035        0.93126778295279        2.37552134192472
H            1.36336967753527       -1.21632973902490        3.26534285877150
H            0.03706485612098       -2.07620066189411        2.47030402605942
H           -0.29328496958001       -0.59778735136934        3.38388860233107
H           -0.77650745224823        1.05553394365685        0.59635222805278
H           -3.71942265290041        3.24226876891127       -1.45636972428067
H           -5.39168270143789        2.90491006942538       -0.92127548823592
H           -4.86072464165198        2.39381326798527       -2.54268088497910
H           -6.38763906368810       -1.18778051345896       -0.91251185970913
H           -6.82988240700046        0.52518865763915       -0.68613660141470
H           -6.28781424672168       -0.03129533811167       -2.26728114059827
H            0.36537154958824       -2.59320307685054        0.34505570129371
