43
 energy: -83.876442893997 gnorm: 0.000917644135 xtb: 6.5.1 (579679a)
C           -3.81559244512621        2.57212313980643       -1.93229194215562
O           -3.11380283979162        2.27621230178197       -0.72785015722235
C           -2.35462666034403        1.16119303966124       -0.73144311647702
O           -2.25385470054399        0.45500426447305       -1.71750489440111
C           -1.79387756739347        0.82890386721750        0.65733572406344
C           -1.43044601339394        2.09138043030829        1.44587855627762
N           -0.59287463615830        0.01277870338172        0.49336790467878
C           -0.72004660411462       -1.26004820758902        0.41762361173380
C            0.53266897337700       -2.09882350644902        0.17999922729793
C            0.83944223912035       -2.93451339535383        1.43032758805362
C            0.35262596970882       -2.99037197987693       -1.05527990780168
N            1.62542334183804       -1.15339920511776       -0.05563520997987
C            2.89049295274362       -1.50363931470486       -0.30328585675978
O            3.31878515390318       -2.65009158191255       -0.37106072417252
C            3.79482472864058       -0.33838192679599       -0.51859068933588
N            5.05981598456101       -0.38000435926754       -0.80659149334736
N            5.47838245160468        0.91218471105358       -0.93418631111691
C            4.44348648695916        1.66166652680182       -0.71659227187614
C            4.38510182439803        3.13976022002117       -0.73692641084445
O            3.34595365529542        0.93444362158542       -0.44799467834949
N           -1.89087618563426       -1.93303010003755        0.52908804194838
C           -3.02231417811947       -1.30607051846703        1.20373511257001
O           -3.91396755159857       -2.07193810456626        1.66350954886032
C           -2.91676369753904        0.04659891665652        1.28630708487190
O           -3.92174953670328        0.81223074031188        1.92872569849011
H           -4.48933034032872        1.75190023871271       -2.19777584885908
H           -3.11158846787243        2.73435095214449       -2.75399296773535
H           -4.38790694448656        3.48080628672696       -1.75192503560040
H           -0.68314140294693        2.66842385894848        0.90362063312760
H           -2.31343249310183        2.70837523441931        1.60401058075479
H           -1.02013955314549        1.80543074977496        2.41361465394338
H            1.02644280062441       -2.27698082726386        2.27834632600124
H           -0.00738334524777       -3.57811066511336        1.66118448385750
H            1.71690039808104       -3.55691187484575        1.26347079472989
H            0.16408012011523       -2.37477095057828       -1.93441800021299
H            1.24813104556347       -3.58595716669886       -1.22343276575570
H           -0.48834366664541       -3.66489173793315       -0.90774020776294
H            1.36651339004930       -0.17172244214628        0.01393115109538
H            5.35585559643514        3.53656652037613       -1.02207054651128
H            3.63036212383325        3.47641543795996       -1.44671058022475
H            4.11550277336821        3.51738110298550        0.24885711329664
H           -1.87328185891940       -2.93637060185514        0.61555502559114
H           -4.57545132106049        0.18190260145945        2.26310575526341
