16
 energy: -33.440376579044 gnorm: 0.000558826495 xtb: 6.5.1 (579679a)
C           -1.63270209177995       -1.42989054745329        0.38545066836394
C           -0.41846674840894       -0.63807307321851        0.14311174233640
O            0.77844539076312       -1.17391482679587        0.05338597598297
C            1.62930509136669       -0.15842500980309       -0.18741975719350
C            3.09235848773358       -0.41775832491022       -0.35176170022396
O            3.55825418679355       -1.51154143657568       -0.29092197649703
Cl           3.99297257211738        1.00063310714882       -0.63430102820002
N            0.99551487889022        0.97479394871136       -0.24815336884601
N           -0.29275842468513        0.66377793640344       -0.04197539297801
C           -1.29578523740222        1.71031015587665       -0.03331751116609
H           -2.38094934645654       -0.83392803245584        0.90360110386536
H           -2.04903470242962       -1.75235484483644       -0.57262812885970
H           -1.37980261695961       -2.31794346277371        0.96421075538355
H           -0.86681891521212        2.58558931043928       -0.51474923935008
H           -2.17212606936512        1.36122542311925       -0.57403240453444
H           -1.55840645496532        1.93749867712388        0.99949926191668
