43
 energy: -83.887328975286 gnorm: 0.000477636923 xtb: 6.5.1 (579679a)
C           -3.79414906942717        2.76605449330414        2.77348631975220
O           -3.67100203362260        1.59557193246251        1.97333486277595
C           -2.43186141918351        1.28806057340024        1.55319869118717
O           -1.47724956904353        1.98390630052121        1.84709107255462
C           -2.34676027401843        0.06072080819532        0.71197514706307
C           -3.44333948725961       -0.72885095116079        0.37328503574379
O           -4.72776751890678       -0.52839516540230        0.88053910022334
C           -3.30691323912545       -1.76967503269462       -0.58655149275456
O           -4.25106762496960       -2.47737877715323       -0.98375254617344
N           -2.04474578332554       -1.89302279378348       -1.15888144565310
C           -0.87370364741596       -1.42213048976710       -0.42630742722509
C           -0.43051942841884       -2.50273649180043        0.59079781923405
C            0.26583297197820       -1.11140097678535       -1.45462111414934
C           -0.27498909642752       -0.16462751439775       -2.53494899527660
C            0.86208682041381       -2.36842180753145       -2.09094157987784
N            1.28383811133493       -0.40016950353361       -0.67676111831072
C            2.48393120905285       -0.01833689575569       -1.12438403112987
O            2.99252389583019       -0.32008424925842       -2.19593811823439
C            3.17780842335224        0.83758445465865       -0.11654459448759
N            2.70117960087259        1.21557737734337        1.03007725574023
N            3.65442804288933        1.99762555525321        1.61575637773002
C            4.65003613602577        2.04726455640460        0.78700815719892
C            5.92785120094552        2.77405584007966        0.95715337445652
O            4.41238721337824        1.33651293656159       -0.32617969781195
N           -1.11012031785141       -0.19052087871426        0.29039405577881
H           -3.21941439253415        2.66096357546717        3.69839973116868
H           -3.43216712405732        3.64359060555884        2.22952084437989
H           -4.85145098486134        2.88339201927722        3.00538665885965
H           -5.28542821602475       -1.20737700063027        0.46593635077063
H           -1.91113736838238       -2.76819194963769       -1.64361951677279
H            0.52054172638149       -2.22169935616419        1.03983851179096
H           -1.18153643311709       -2.58323309081028        1.37578706041682
H           -0.32883149177208       -3.47153051911101        0.10654430508084
H            0.52633098483737        0.14245500248926       -3.20553615790562
H           -1.04688737928512       -0.67145289669321       -3.11242597631385
H           -0.70810410995228        0.71878675531987       -2.06425238537568
H            1.51850544071630       -2.10084483028459       -2.91788228992299
H            1.44072033730937       -2.93430274699824       -1.36284959534589
H            0.06593000438528       -3.00172121287819       -2.47805372878977
H            0.91682075761882        0.03865256408744        0.17008054706498
H            6.76520290427350        2.08012133017613        0.89219579289531
H            5.93926624818872        3.26898882129212        1.92499756623607
H            6.04392697918937        3.51622162908554        0.16764317342278
