42
 energy: -82.984150886799 gnorm: 0.000414887557 xtb: 6.5.1 (579679a)
C           -2.43066115766750        0.09058941504904        3.84597713575558
O           -2.21715432573808        0.21262596168611        2.43342529379803
C           -3.05982573642185       -0.43130776832424        1.64126494903729
O           -3.98938766133529       -1.09349018804870        2.02331964503268
C           -2.70330705496107       -0.24046005500246        0.17964825548713
C           -3.78909436713867       -0.32032478676124       -0.83825736221799
O           -4.95754403435977       -0.18064354239448       -0.58067381491186
C           -3.29486890900613       -0.55483230375652       -2.26639259698858
O           -4.02151930978447       -0.93544368248098       -3.16214081204561
N           -1.97915302230610       -0.31472145969844       -2.44276986892159
C           -1.03890049935417        0.18006979556572       -1.45478666163769
C           -0.88133678464483        1.69933562403066       -1.62448584195693
C            0.29824661346135       -0.63121573110268       -1.60171913918021
C            0.01681184833475       -2.09057634016779       -1.22817776220452
C            0.87459049260067       -0.56697829563980       -3.01764814536042
N            1.25926528805101       -0.13037887427796       -0.62374255299701
C            2.09925592610079        0.91097122022379       -0.79986413368351
O            2.11098086968436        1.66636946810056       -1.75800424936829
C            3.04791857215851        1.07126786375473        0.33080332091438
N            3.95072446293773        1.98991799047808        0.48078110717802
N            4.59539066159195        1.72155054068340        1.65030006697441
C            4.04777672144804        0.65436646030155        2.14316846630385
C            4.40038837141690       -0.05101052426036        3.39407032164046
O            3.05973867817476        0.19338641973247        1.35795322592776
N           -1.48211215704488       -0.01492732929693       -0.11025056120303
H           -3.48257581061519        0.26397591520595        4.08326524969951
H           -2.14150724314110       -0.90909663710401        4.17535031127705
H           -1.80250541149963        0.84141139113671        4.31945954285217
H           -1.64932368092109       -0.37148747379473       -3.39399721268203
H           -1.86984426742909        2.15475423489471       -1.59855956421300
H           -0.28248511935804        2.10039479366499       -0.81100004150714
H           -0.40367689499507        1.92611176382942       -2.57380275840866
H            0.92735654953912       -2.67771028761950       -1.33048136310942
H           -0.33473781731207       -2.15650601092632       -0.19938080369521
H           -0.74564892481728       -2.50191358246197       -1.88745874313986
H            0.29210833125669       -1.20454802349308       -3.68019026071444
H            1.89874365851610       -0.93642860425852       -3.00175904255263
H            0.87732545845884        0.44510087656536       -3.41518903673832
H            1.34800975019649       -0.66592328208975        0.22565283437258
H            4.67328835069135       -1.08239767251166        3.17194229819553
H            3.54449952186754       -0.06847721116961        4.06806521264052
H            5.23475006336547        0.45253293173724        3.87628409235951
