42
 energy: -83.668560054569 gnorm: 0.000824739635 xtb: 6.5.1 (579679a)
C           -6.03258048151911        1.25514045908614       -1.02757348089760
O           -4.79319536577587        0.63772812417149       -0.72048036487862
C           -4.50296987061805       -0.49675346894130       -1.43654647755268
O           -5.29382716510172       -0.91034451465849       -2.27264189013722
C           -3.22321655425913       -1.07348598282144       -1.07123301465671
N           -2.52689350933160       -0.39043830323128       -0.08882854438612
C           -1.38498385846714       -0.81127019946990        0.31231940497716
C           -0.64435490590677       -0.11482676464924        1.43936367878648
C           -0.94624315857021       -0.89452034745944        2.73170014887027
C           -1.13772274714570        1.33501314894420        1.55494356588961
N            0.78430384218544       -0.17614213318981        1.13142823588084
C            1.71343642179855        0.48344105254807        1.96528068568780
O            1.44969057383069        0.77360008515403        3.15132936838188
C            2.95925249981349        0.72178768280480        1.34735579564490
N            4.03007061786841        1.28115474822641        1.89577997055688
N            5.00555757425726        1.36806426690775        1.04426460015316
C            4.53855760239844        0.79584190761088       -0.22955617347729
C            4.60084672023354        1.86477764312124       -1.33290874909920
C            5.40766711019238       -0.41874868953985       -0.59864226255128
O            3.19535662408208        0.39141102495487       -0.00492440260794
N           -0.81291632259763       -1.95932404098496       -0.19775756756594
C           -1.38935628551369       -2.73590190415162       -1.16510735036904
O           -0.81561425285267       -3.75068203116637       -1.56087366282019
C           -2.73330841096393       -2.26216741265268       -1.67422590183776
O           -3.30713040208553       -2.92862735955007       -2.55695380636708
H           -6.05101983307252        1.59794644941522       -2.06745784141230
H           -6.13970681627552        2.10896000945152       -0.35953074055415
H           -6.86468910727085        0.56031851688814       -0.87194874281425
H           -2.02487924497726       -0.95919945453497        2.87298033511996
H           -0.50794095009663       -0.39806685054826        3.59536870435996
H           -0.53863987377360       -1.90229482469286        2.65896400176620
H           -2.22121793568403        1.34100202008935        1.67080423981579
H           -0.88100527408745        1.89001486173006        0.65300946340702
H           -0.68450949609491        1.82238683999446        2.41647067012546
H            0.98720612291040       -0.03468791315271        0.14856996025470
H            4.25325687457393        1.45367519609036       -2.27911179697708
H            3.96931709359196        2.70772329894883       -1.05656771850027
H            5.62577108448874        2.21197691379811       -1.44604261226736
H            5.36283784366731       -1.15206239899998        0.20508712611136
H            6.44020324176017       -0.10263640565762       -0.73229422073763
H            5.04825159645418       -0.87587947704395       -1.51905921517727
H            0.08633837793021       -2.25390577282475        0.15429058186277
