42
 energy: -83.022027499811 gnorm: 0.000320330533 xtb: 6.5.1 (579679a)
C           -4.38157329586088       -3.27139123882394       -1.09872816670456
O           -3.42963455638148       -2.22890624057582       -0.87554150549924
C           -3.75889994445643       -1.31147938435523        0.03902722903830
O           -4.79985492171988       -1.34410804230120        0.65392815871446
C           -2.69754200938180       -0.27207133712672        0.18503255462077
N           -1.59261517387492       -0.45586468670705       -0.60307356223083
C           -0.62770676596261        0.39979628901040       -0.55805779208029
C            0.57803202345011        0.20711199449728       -1.46428176484118
C            0.47345440422929       -1.15388004542083       -2.15463142033377
C            0.62950946843121        1.32632834739965       -2.51297187731523
N            1.81650371258746        0.18556366540993       -0.67117242673485
C            2.41305417447748        1.25168477169732       -0.10717183569605
O            1.95600250820201        2.38665697481146       -0.06619092326862
C            3.71735084033324        0.92190379917929        0.51324258099569
N            4.51227503368721        1.72300550372436        1.15212698894804
N            5.58594713828571        0.98268925399314        1.54276999390804
C            5.38193008091451       -0.22588198594991        1.11886958976734
C            6.25659564902012       -1.40592591379853        1.28817625569920
O            4.21599049934800       -0.33240816970215        0.45987722721631
N           -0.68320706011573        1.49260243141197        0.24575013548908
C           -1.72173235174508        1.78217839277100        1.10235188498621
O           -1.67387418927293        2.77915315533338        1.81070755402842
C           -2.81032961494682        0.80162827818384        1.04252235939567
O           -3.91204874430794        0.92115770857037        1.79415350425561
C           -4.11646945386208        1.99773106314492        2.70851615224459
H           -4.53099982826659       -3.84759797010247       -0.18215086192189
H           -5.33684512123369       -2.84754259913707       -1.41866387784713
H           -3.97013596029974       -3.90685617577354       -1.87998702070173
H            1.33711997122300       -1.31112402904716       -2.79717338199980
H            0.42554791952856       -1.94983885189967       -1.41319211200075
H           -0.43166148426909       -1.18893010352234       -2.75878642590556
H            0.66254522483939        2.30674400743756       -2.04297917558256
H            1.51438015722731        1.20027109210049       -3.13406109150168
H           -0.25773676153783        1.26671361582863       -3.14135773001157
H            2.31436393030059       -0.68993968418674       -0.65292104698008
H            7.16125245624095       -1.11854956541040        1.81879410247258
H            6.51717309439186       -1.81759270201860        0.31356227608487
H            5.73254345765165       -2.17914674143968        1.84974968782383
H            0.09959156692602        2.14636328780765        0.24565737196268
H           -3.34955600514271        2.00525267216813        3.48647434185444
H           -5.09317183958496        1.81510187322234        3.15870389197514
H           -4.12557222907027        2.95939528959516        2.19048815768313
