42
 energy: -83.602182619706 gnorm: 0.000180273654 xtb: 6.5.1 (579679a)
C           -5.89420806054733        1.14098655071567       -0.93151621224393
O           -5.06169740712895        0.44065695192259       -0.01774094980677
C           -3.77403862045155        0.23459365247025       -0.41052656633868
O           -3.38685030280319        0.60469010556610       -1.50844319981998
C           -2.89161992018029       -0.31439847847654        0.72354732954376
C           -3.67849799927406       -1.30354683599419        1.60665954019944
N           -1.73309691202710       -0.98327199380917        0.16175212282760
C           -0.59785309447235       -0.32373597040092        0.14782221268628
C            0.54012379784701       -1.08910009779546       -0.55498203470387
C            0.65663925848153       -2.49901729927119        0.04230877660429
C            0.22190146874862       -1.17116600357002       -2.05615499829832
N            1.77452338888768       -0.34488618735282       -0.33818196003673
C            2.99645849859002       -0.71637220571371       -0.76305687159868
O            3.23458170789748       -1.72110123701418       -1.44917718321086
C            4.03921175590859        0.21296698988900       -0.31309798337479
N            3.86752334527137        1.28762724983260        0.42535300174814
N            5.10668059836287        1.83251842649725        0.62022097150474
C            5.95230275404742        1.07336013842469        0.00211675931060
C            7.42236139517844        1.24406200207845       -0.07762047114100
O            5.35884179226609        0.03051317546312       -0.61225672662335
N           -0.27714983486534        0.86765706416266        0.62743109973606
C           -1.26590700994539        1.55103199467364        1.34966874618612
O           -1.00061069192508        2.64644164377844        1.94490960673911
C           -2.52080082559282        0.95257734962725        1.43034194938846
O           -3.52510208664444        1.58606136133422        2.19682363605516
H           -5.49005578160770        2.13587887469341       -1.14651565238093
H           -5.98694946203020        0.58809858659899       -1.87202427374966
H           -6.87444085853033        1.23459346516788       -0.46601720726592
H           -3.01610578802428       -1.69717233317456        2.37731067744546
H           -4.52156863747639       -0.80634616671013        2.08418939432351
H           -4.04689894473951       -2.13391987173656        1.00443664692078
H           -0.32076667270426       -2.98053881920192        0.00031325354555
H            0.97340399501206       -2.44010518029393        1.08393604905384
H            1.37489728456848       -3.10305703002542       -0.51108481743984
H           -0.76402480798677       -1.61985862632260       -2.18138736366179
H            0.95967639592133       -1.77838968999303       -2.57993013580717
H            0.21259370273413       -0.17203372471272       -2.49335448544826
H            1.66171482850054        0.51069929442310        0.21311089597879
H            7.73275004318383        1.37287264644599       -1.11433002573717
H            7.71955011833316        2.11699017275590        0.49805681678607
H            7.92641387772181        0.36183158965055        0.31631204596987
H           -3.10390328853315        2.39327346542283        2.54077358614331
