42
 energy: -83.615279974674 gnorm: 0.000263674926 xtb: 6.5.1 (579679a)
C           -6.12318607482991       -0.06634106711270       -0.16102387673848
O           -5.03690955073664        0.69619590289642        0.34601873447849
C           -3.79676953280327        0.32103409767877       -0.06502580119073
O           -3.63798154772431       -0.60571506203001       -0.84741012835538
C           -2.69229170981822        1.07448112408920        0.65543646638039
C           -3.07843449728096        2.52341141291292        0.96285507869353
N           -1.48510229106000        1.05969433264767       -0.15379469508869
C           -0.76090262720973        0.00156695223011       -0.11628563979752
C            0.40941970567814       -0.13995717890147       -1.07998325141124
C            0.01388905994852       -1.18076700917064       -2.13879443645465
C            0.71078203078014        1.21303142279366       -1.73804569322318
N            1.55697617966254       -0.61452956004382       -0.30030429178867
C            2.82171769214259       -0.72757217902970       -0.89666417218111
O            2.98898686818317       -0.90023122103147       -2.12150412741789
C            3.86364073327723       -0.67344775799344        0.08114829264838
N            3.70571802903761       -0.45739441558270        1.39038162823616
N            4.96018004248161       -0.44749709925521        1.93597470276637
C            5.80011329643655       -0.64778070161572        0.97421388397599
C            7.27928466583483       -0.70962283840872        1.07725173688162
O            5.20194816800693       -0.80192427995562       -0.23105609808752
N           -0.99358760125619       -1.05006952691021        0.71335962368614
C           -1.77440143145587       -0.91311875471728        1.90962750306658
O           -1.57804052686852       -1.77987025211311        2.81070659460156
C           -2.61713572651323        0.21999391032058        1.95493264913988
O           -3.34026504483529        0.56919525071908        2.94964956194101
H           -6.05716885134835       -1.10864798008986        0.16766029672808
H           -6.13391231152366       -0.04166332518461       -1.25504887543743
H           -7.03693497673644        0.38421353365774        0.22332725952567
H           -2.23450989124049        3.02993629793828        1.43136983690608
H           -3.33709069815198        3.05185017619772        0.04587783067879
H           -3.92834908744443        2.55181137044771        1.64399503640602
H           -0.11429564812058       -2.15719668506502       -1.67227884577596
H           -0.92793331807498       -0.88506443510672       -2.60166861511774
H            0.77767104134346       -1.25739093679646       -2.91024046001023
H            1.51483089965346        1.11203613055821       -2.46503670973722
H           -0.18267502588002        1.57817698261207       -2.24372715581003
H            1.00171888801569        1.94147654732640       -0.98158231712960
H            1.60894050491999       -0.20062963867691        0.62628519329721
H            7.57437415971730       -0.62670351343514        2.12039530471273
H            7.65033411769360       -1.64992612866640        0.67006840994033
H            7.73405269735865        0.10390572516260        0.51139094689309
H           -0.30670280926179       -1.78894962329369        0.74415461917801
