46
 energy: -86.302722405551 gnorm: 0.000595351669 xtb: 6.5.1 (579679a)
C           -1.76012415322843        4.20729034007935        0.49261370125660
O           -1.64524550979093        2.77141517883818        0.50103192656906
C           -2.37015444217860        2.11295318770823       -0.36428938450378
O           -3.11129476331547        2.59239986691918       -1.18475552122411
C           -2.19151515723817        0.61127955743839       -0.25537448885833
C           -3.22805222350199       -0.29810300046292       -0.83763207492263
O           -4.51044702806775        0.22395344034600       -0.84983294521383
C           -3.24795501958915       -1.59727874583648       -0.05087629240315
C           -2.76949841719402       -0.68555357449872       -2.27744798113446
O           -4.17805414875253       -2.33019862943054        0.05088489140343
N           -1.95548707406443       -2.00129463176808        0.47955273867253
C           -1.97930727727869       -3.35442236795334        1.04106002072644
C           -0.90598234608814       -1.19990778777610        0.41884249089040
C            0.52767750726715       -1.59339440496030        0.66127415793414
C            0.91548108137072       -2.91445683731912       -0.02020065991684
C            0.77496866022768       -1.61976706545558        2.18773958400982
N            1.34524862104555       -0.53107529405040        0.08551265094136
C            2.69790348366600       -0.47915181047565        0.20420148809802
O            3.38714334192032       -1.32220157434116        0.74302110442749
C            3.22533573932366        0.74760286370126       -0.43191007065057
N            2.51849195254790        1.68298470634605       -0.99452278561837
N            3.39537115367326        2.62241014814558       -1.43809741615978
C            4.58449292739639        2.20188311875793       -1.11829048818899
C            5.88051723983575        2.86124094252714       -1.38830842734924
O            4.53949153918674        1.02393771919718       -0.48064431421133
N           -1.10125105822159        0.13449874718146        0.22726162270912
H           -1.06504380903184        4.57157918752206        1.24543229779418
H           -1.50187841731458        4.58853042367428       -0.49659525395142
H           -2.78475337032093        4.48996436862902        0.73977556984043
H           -4.54124679895748        1.07642199802261       -1.31660090448452
H           -2.74154321892777        0.22067351656344       -2.87829233270786
H           -1.78641617517384       -1.14774059792697       -2.25634785809547
H           -3.50211603111654       -1.37619650479126       -2.68966026995601
H           -1.93462899082061       -4.07365703352247        0.22448106256968
H           -1.15425117079198       -3.49478954204270        1.72654412941963
H           -2.92280675204128       -3.47194234198258        1.57297945765221
H            2.00034733580476       -3.00573518462575       -0.00046942130340
H            0.49567721754836       -3.77220772796634        0.49484693844811
H            0.57677329515970       -2.90896142175069       -1.05414822672203
H            1.80612351929288       -1.92148173902819        2.36335488551891
H            0.11189540145952       -2.32378639811530        2.68177711275601
H            0.61140048979117       -0.62458049696313        2.59674654794521
H            0.87240550319486        0.24932146536650       -0.34986944415468
H            6.47388451424816        2.90368145229803       -0.47530085351982
H            5.70864558996162        3.86632704466018       -1.76638168587559
H            6.43977923907809        2.28753543912980       -2.12859427845507
