42
 energy: -82.976847343780 gnorm: 0.000317956617 xtb: 6.5.1 (579679a)
C            7.11584471378453        0.29879146035786        1.28603181692886
O            5.76760174031364        0.72102272419042        1.09498435254927
C            4.92353828993966       -0.19399129181156        0.59157312208047
O            5.28981703242909       -1.31817923498182        0.30814770744258
C            3.53708120776019        0.29964266565931        0.42965424095584
N            2.65970338054518       -0.63390828195295       -0.06409030886816
C            1.41031336199632       -0.27018538834220       -0.21467600768633
C            0.47295202484925       -1.34119456659763       -0.76087349651110
C            0.55067267145976       -2.59671806621778        0.11493040878463
C            0.84979017850110       -1.65648991699229       -2.21383655385164
N           -0.87869488747210       -0.77442420754264       -0.70883346991497
C           -1.98401070611850       -1.41571731272566       -1.05410144780076
O           -2.08648815219491       -2.54944047230927       -1.49085209907018
C           -3.22640602365095       -0.58367040485768       -0.83873220405133
N           -4.45675319512125       -0.96285388609216       -1.01834874517940
N           -5.20227463872585        0.10378101299439       -0.67390086738596
C           -6.64630059423226        0.03487023260557       -0.73359094690634
C           -4.42431002911804        1.09618414845212       -0.29621069599002
C           -4.80591028706895        2.44225008361424        0.16005719806513
O           -3.17572650913292        0.68799307077661       -0.39149881400925
N            0.86693271371794        0.91976226934936        0.04584658665418
C            1.67022847507149        1.90092269214598        0.52563306063704
O            1.28570453183717        3.05205005747299        0.80158908099295
C            3.08252207273893        1.55731867374854        0.72727618235217
O            3.84114026502567        2.56325398550836        1.21278825205555
H            7.66929884624307        1.16341104661514        1.64787401292254
H            7.54313964393068       -0.05283219868311        0.34289957890760
H            7.16083279599510       -0.50923230638571        2.02162931487907
H            0.17227213767296       -2.37867472549017        1.11264107104395
H            1.59372048187796       -2.90381640906975        0.19057004664334
H           -0.03316134329984       -3.40779007498047       -0.31679293463303
H            0.22266122312167       -2.45403861444329       -2.60900627931543
H            0.72605356189642       -0.76730640172614       -2.83059867302377
H            1.89342990127532       -1.96870203341918       -2.24569782772463
H           -0.90726606083279        0.18818537027948       -0.36853296790662
H           -6.91706735066531       -0.89435801345816       -1.22808066867499
H           -7.01850082956528        0.89082386168782       -1.29239282943295
H           -7.04366145014847        0.05604576109926        0.28013042505762
H           -5.37034336708126        2.37004153373314        1.09103293647567
H           -5.44889692859755        2.91714441448023       -0.58164773267844
H           -3.91335280450848        3.04424179306416        0.31870027404652
H            3.23387690555817        3.32578595024895        1.32023190113451
