20
 energy: -38.344551333494 gnorm: 0.000716365464 xtb: 6.5.1 (579679a)
C           -2.49703136940505        1.76383310392370       -0.19338414342260
O           -2.07488428337463        0.56786258743732        0.41446099324214
C           -1.37898847073574       -0.38591348708854       -0.53216291442001
C           -1.39610277818399       -1.72179596997396        0.27051390936382
O           -1.87038004837025       -0.42795853911489       -1.71933824443364
C            0.10980239887233        0.14225770661971       -0.52034069250707
N            0.53422485745606        1.30987854363087       -0.89082993845034
N            1.91293083067419        1.28732367359847       -0.80429500675639
C            2.22891232623936        0.10536531923324       -0.39508144183720
C            3.58781289337845       -0.43180614164889       -0.14076698307165
O            1.14438049026031       -0.67044089282093       -0.19641693484914
H           -3.20182265541887        2.25692244730940        0.48286401754371
H           -1.65301660845013        2.44943726531062       -0.37932986001937
H           -3.00525713353305        1.57528250048198       -1.15182593599127
H           -2.42653464173156       -2.06596434811680        0.33661966609875
H           -0.99363102494018       -1.58152937155498        1.27166982450916
H           -0.80411425945663       -2.46322989463002       -0.26189682131553
H            4.32811105773919        0.33467238316992       -0.35518205415250
H            3.77437238161917       -1.30089617593858       -0.77064660518073
H            3.68121603736247       -0.74329870982827        0.89907116564984
