47
 energy: -80.186581770109 gnorm: 0.000312509872 xtb: 6.5.1 (579679a)
C            6.84514865619887        1.66171704724429       -1.15655856365129
C            5.77170298717749        1.17536857061944       -0.13840540971267
C            4.38417300409896        1.22345290684335       -0.74120762018614
C            3.68428709702767        0.09898760940499       -1.08288806945507
C            2.34327644382262        0.23545178549379       -1.77246149947030
N            1.26294525392758       -0.12816842199412       -0.85314452515748
C            0.02509965532441        0.39079678935243       -0.98151489989279
O           -0.24361593424996        1.25911163808427       -1.81652522900789
C           -1.00784582360822       -0.13931405861643       -0.04726661245016
N           -2.29661954178152        0.17086893168663       -0.39694765714158
C           -3.31345282509774       -0.21967401806943        0.29935879817582
C           -4.68298831249472        0.21024338220401       -0.21649936416177
C           -5.13821171718666        1.46476971286741        0.54422472931543
C           -4.57358783380378        0.54265613698107       -1.71468685749101
N           -5.66722603234246       -0.85292335702421       -0.02392927258732
N           -3.16636960791759       -0.93973919156122        1.46656174906984
C           -4.28636170837356       -1.39836345973471        2.28389600925270
C           -1.89767999304315       -1.31113986252398        1.91125843261362
O           -1.73245295764338       -1.97298799497615        2.94668396521286
C           -0.79951093815861       -0.87509988001566        1.09993984793276
O            0.43298592467853       -1.23013034188166        1.56104888798950
C            4.13457607546955       -1.20098633929195       -0.77395777538921
C            5.33347575991011       -1.32953197280518       -0.03005740349848
C            6.04734342004385       -0.23212109598978        0.29490685678533
F            7.18334786597654       -0.36913761845380        1.06661520850592
H            6.83281661184058        1.02677956973982       -2.04266693805654
H            7.83734510731603        1.62162047570594       -0.70600528966621
H            6.63504042523843        2.68770949109911       -1.45855895586458
H            5.84016555303420        1.85641219775885        0.73038194743309
H            3.99259762353274        2.21247437647697       -0.95982994153026
H            2.16707945533861        1.26188048111244       -2.11431868781782
H            2.30328720882627       -0.42570699455346       -2.65047779457033
H            1.43131759619637       -0.91786640475163       -0.24956225931585
H           -4.38926355233788        2.25025837988050        0.44635385706513
H           -6.07953079339519        1.82281351359012        0.12991507324378
H           -5.28645234800890        1.25290513708895        1.60155983153594
H           -5.55830658102152        0.80177181275574       -2.09919324637473
H           -3.89622677444971        1.38185083820039       -1.87230244855157
H           -4.19637068015458       -0.31950294380794       -2.26327978381073
H           -5.52370638340348       -1.58076991225565       -0.71214841949426
H           -6.59337025014276       -0.47859903753362       -0.16958720557067
H           -4.75258534947612       -2.26919146309112        1.82380351074903
H           -3.90141598011551       -1.66965561798606        3.26748034823909
H           -5.02902192047549       -0.61327034066844        2.38957112971684
H            0.29728234539720       -1.75194249320121        2.37327966556945
H            3.56358913451932       -2.07681966316490       -1.05248157587089
H            5.66329563378620       -2.30725830023738        0.30673745734011
