42
 energy: -82.975775609186 gnorm: 0.000918865149 xtb: 6.5.1 (579679a)
C            6.32746653565981        1.54495432477915        0.83908093492594
O            5.18535237787058        0.75236862781101        1.14050952872257
C            4.20635773649696        0.74756971106086        0.20863601572884
O            4.31882427045405        1.38982918726809       -0.82714578654563
C            3.04660250149475       -0.07101787640091        0.54834152004781
N            2.07445364652179       -0.04803609169627       -0.42944111083002
C            0.99351329579528       -0.71741629239995       -0.29042353083182
C           -0.04358076027927       -0.73649276542436       -1.39016441977811
C            0.22634559529021        0.37690224608437       -2.40332462038367
C           -0.07571663789883       -2.10737852176597       -2.07013685627072
N           -1.38169855078155       -0.52796535561126       -0.79150500140450
C           -1.70611880972678        0.44738306633442        0.02268216829894
O           -0.79775282726737        1.32505784386808        0.34220127870329
C           -1.07067381758852        2.43005547438469        1.21585238989631
C           -3.05480470054089        0.47595819558844        0.52884704265426
N           -3.62306038354342        1.31318555385419        1.35509515592539
N           -4.89429269174823        0.89978119796233        1.51939004502851
C           -5.04715883637358       -0.16968284568743        0.78774061235631
C           -6.25815697152303       -0.99729353256963        0.63482374168116
O           -3.91914343380961       -0.48577643500676        0.13920672238046
N            0.73323064273388       -1.47793159542142        0.83141746237290
C            1.60115719184525       -1.57660063273828        1.89419156654735
O            1.29366122073518       -2.25279408617875        2.86843780828199
C            2.90206565527601       -0.81324594006010        1.75283903103047
O            3.72757088477489       -0.87902981617399        2.67710470356687
H            6.81370892504107        1.18951596188341       -0.07459638568869
H            6.04335474541402        2.59280269757318        0.70289802612977
H            7.01081302449249        1.45308318860560        1.68253357627027
H            0.24682021535296        1.34487270625939       -1.90645529811739
H           -0.54718206764407        0.37939452349206       -3.16749770266312
H            1.19655599577976        0.20132838478525       -2.86647427047151
H           -0.83234256142806       -2.12247498774100       -2.85193182244333
H            0.89693748274033       -2.31257813568800       -2.51526978483265
H           -0.30191544292791       -2.88447201363706       -1.34222712430392
H           -2.11221228852326       -1.17823750612368       -1.03921527779433
H           -1.86796687281209        3.04568968459000        0.79777720221809
H           -0.14213471849292        2.99552310964461        1.27647014897578
H           -1.36847931963873        2.06708340435875        2.20095277015385
H           -6.06677129531773       -2.00137349400620        1.01570250253280
H           -6.51467263038684       -1.08520022383876       -0.42067032942261
H           -7.08383454400759       -0.54893455408036        1.18241604667625
H           -0.13512278149810       -1.97840338792399        0.90026032067177
