42
 energy: -82.984060955945 gnorm: 0.000611620772 xtb: 6.5.1 (579679a)
C           -3.44813398917990        4.10485372001665        0.04921896842434
O           -3.39330962509468        2.71046033832126        0.36056142090625
C           -2.21455194167657        2.10576462088734        0.17649119417049
O           -1.23746494197851        2.68937702228760       -0.24225062395691
C           -2.21992375484247        0.66412003437302        0.51427546112786
C           -3.23491168298172        0.01736031044784        1.14764293856983
O           -4.38511282468476        0.59276561019715        1.47449192685869
C           -2.89935029487872       -2.16066423115150        0.45451821561527
C           -4.00207583819421       -3.11569744309283        0.17764031213955
O           -3.14142175238060       -1.29533059086241        1.53180686775416
N           -1.82228086994539       -2.13337704847200       -0.19532731584239
C           -0.82211662171935       -1.18319277986292        0.02108518637297
C            0.57818837719996       -1.72058791013691       -0.21143738483218
C            0.67136240816142       -2.31359477462759       -1.62445698259534
C            0.88861482303998       -2.78492558855543        0.85106624434541
N            1.49547474785732       -0.59529681472573       -0.07885033852041
C            2.82833898210172       -0.68296129960049       -0.20960208405210
O            3.45728132327083       -1.70186855928268       -0.44773570705141
C            3.46592831030641        0.65026354691992       -0.03001759901978
N            2.84958763387599        1.76818977380936        0.20723421042771
N            3.80674420283459        2.73555053700982        0.29098247362803
C            4.94612688390264        2.14493825776563        0.09857229212052
C            6.29221502677810        2.75925426521885        0.09103712538951
O            4.79814732493727        0.82771784078403       -0.10951206168775
N           -0.98596530465297        0.05625635529071        0.26211907090687
H           -3.19291498966055        4.26846374550350       -1.00092034594258
H           -2.75105893593656        4.66117185141880        0.68140139976165
H           -4.46978213502585        4.42601487220303        0.24270813930297
H           -4.92584062963103        0.01233944781848        2.02502264000938
H           -4.89985799161779       -2.56381493644300       -0.09961183467160
H           -3.72038392034357       -3.78942720422369       -0.62731692477045
H           -4.22761150590590       -3.68335723351040        1.07968071089932
H            0.48309593846830       -1.53959128203972       -2.36729965030065
H           -0.07349179882180       -3.09962219398032       -1.73324122859457
H            1.66204853485912       -2.73411579125400       -1.78809447576272
H            0.13440261708008       -3.56826819358386        0.80574503931270
H            0.87604044991312       -2.33495679595523        1.84269931273120
H            1.86835779143657       -3.22281465979328        0.66944641897271
H            1.07057688197866        0.30549399079530        0.12575754102721
H            6.20831766847918        3.82637423970394        0.28069169587758
H            6.91634236062680        2.30027929901923        0.85739156799971
H            6.77036806204020        2.59645565136164       -0.87457881704987
