46
 energy: -87.006562929144 gnorm: 0.000386273625 xtb: 6.5.1 (579679a)
C           -6.58530753453530        1.37599029480028        2.33686239917923
O           -5.60154454884981        1.34734834913690        1.31447502471509
C           -4.50975078213596        0.55892692669816        1.56858263460255
O           -4.42110013223349       -0.06631010385279        2.62723068316800
C           -3.53352430190453        0.53782487401614        0.50331532580472
N           -2.44375861464434       -0.27702716995492        0.73489127893202
C           -1.49773553150969       -0.42883241988432       -0.12843266498181
C           -0.39024065664396       -1.40911996636269        0.26696307364103
C           -0.73086935390678       -2.77488452453168       -0.35691785731756
C           -0.36904584560291       -1.53734550482008        1.80225163389065
N            0.89575263904950       -0.90438404904197       -0.21414063506838
C            2.09452260492300       -1.61753095319704        0.10181259984132
O            2.09210020641837       -2.83636059246418        0.42141786782749
C            3.24578228278263       -0.84849570142411       -0.05479548462726
N            4.55822031726633       -1.22008363719487        0.15024187947698
N            5.24789827900524       -0.10804483570562       -0.08986521530263
C            6.68691006419017       -0.12586147896093        0.03189844055201
C            4.49289364185268        0.91621034595865       -0.41958408812566
C            4.91714560961507        2.29529747590628       -0.75356006591900
O            3.19609640975408        0.53456429135376       -0.42654399676341
N           -1.52322829014106        0.19284685945197       -1.36334257948010
C           -0.50423536087741        0.03061191674518       -2.39507419268612
C           -2.55972068970986        1.09282930241842       -1.67984599065759
O           -2.57036360288202        1.70367601061320       -2.76909291600699
C           -3.57846187618978        1.24098806947243       -0.70682077353629
O           -4.58673619621280        2.10764501123897       -1.03369269743301
H           -6.97941453607841        0.37190292475770        2.52777358388981
H           -7.38896938115693        2.02479607506433        1.98974426723905
H           -6.16833858477294        1.77255327557810        3.26881701705351
H           -0.08249171667597       -3.55160232550215        0.04464876718213
H           -0.61079077066586       -2.74940783179186       -1.43854013195384
H           -1.76587206692044       -3.02689853900482       -0.12552772425110
H           -0.16428039394769       -0.56712108551494        2.25384365391391
H           -1.33319469836686       -1.89491485995861        2.16221377505613
H            0.40510660747842       -2.24127675117862        2.10353793763202
H            1.00317831217961        0.08406779494819       -0.01865982270804
H            6.98933629295061       -1.13476053173108        0.30232007662500
H            6.99735315317790        0.57705470682530        0.80373102673423
H            7.13734253320013        0.15872381755368       -0.91754990411744
H            5.65732434968726        2.65085187622923       -0.03726464793266
H            4.05037326358071        2.95258911874091       -0.73397587456665
H            5.36587706771453        2.33639273816289       -1.74822952923209
H           -0.13659882474138       -0.99170717462479       -2.41675791080255
H            0.33137452852195        0.70930443601287       -2.21600948834511
H           -0.95462454680089        0.27201544702109       -3.35901861300342
H           -4.37438932523892        2.46695909799314       -1.91332914213884
