42
 energy: -83.588821880487 gnorm: 0.000671509779 xtb: 6.5.1 (579679a)
C           -2.28779705575658        3.37176748573797       -1.61694763879047
O           -2.67740900063211        2.05768127255630       -1.27347826087619
C           -1.90570485970365        1.44645671262003       -0.29773420032382
O           -0.95654315311756        2.07589734005543        0.19349074840391
C           -2.29572715226815        0.12571622024887        0.04741063853456
C           -3.30518191234899       -0.65105105278023       -0.56304454593397
O           -4.07224864743429       -0.28664450422859       -1.48799652342636
C           -3.37593299628291       -2.09564419361400       -0.08430600757675
O           -4.40303078465608       -2.80405457776168       -0.17457388473561
N           -2.21664936676770       -2.61175758622216        0.37347840765285
C           -1.12089296260145       -1.83889547667391        0.91425794891486
C            0.14572381005016       -1.93667326318462        0.03309710094077
C            0.87608664355088       -3.24298485571315        0.39562803487006
C           -0.11418197570542       -1.90287134387604       -1.49108103866669
N            0.98493679068873       -0.79277279420491        0.40156848612028
C            2.22301499520659       -0.54580296891784       -0.03554392644253
O            2.88026758235033       -1.26027178112562       -0.79959583817306
C            2.76112908265857        0.71673939439510        0.52573400597091
N            2.15879375555535        1.52087644904661        1.35973615697430
N            3.02174347252339        2.55070317129479        1.60974884954958
C            4.09126045409575        2.31494122092831        0.92065294052207
C            5.31968072962041        3.14036641128765        0.85702146339653
O            4.00133654161140        1.17480237299734        0.21179699062904
N           -1.51878779312251       -0.45771698687632        1.13374836834931
C           -2.21716946503563       -0.32510599917217        2.42420212622534
H           -2.36701212138277        4.04841445766582       -0.75694546693908
H           -2.95840008023246        3.71534162261196       -2.40587005066653
H           -1.25413252803624        3.39981102283616       -1.98365596600160
H           -2.25287412950699       -3.58301457239819        0.64158278160449
H            0.22733951371276       -4.08925998280098        0.17233072162495
H            1.80579518551609       -3.35931520922506       -0.16113258575529
H            1.09548682704871       -3.24851990245349        1.46336238781762
H           -0.79281908849648       -2.71324546486170       -1.75684084281520
H            0.81642569272054       -2.03223630968354       -2.04392401032862
H           -0.56745551750418       -0.95261886031374       -1.77620964969260
H            0.51669504227202       -0.09094950572078        0.98148347774127
H            6.17284534793205        2.57480412175197        1.23040399968760
H            5.18876541941337        4.03427040594173        1.46118185197468
H            5.53020391484076        3.42544054585339       -0.17328401515639
H           -3.21071104385957       -0.79792419605917        2.41163127135760
H           -2.33654116505839        0.73303849882669        2.67170148495729
H           -1.61032900183663       -0.80773633879529        3.19274120847107
