43
 energy: -83.900242365248 gnorm: 0.000629688342 xtb: 6.5.1 (579679a)
C           -5.23423371701304       -1.19601466771653       -1.20097932112138
O           -3.93285541953386       -0.98423882034292       -0.69359176210166
C           -3.83903422805385       -0.27698753184097        0.56488842279335
C           -4.22985780356000        1.20088507638036        0.36144508499081
O           -4.68721745210702       -0.83830698875802        1.51252758712159
C           -2.37389926549947       -0.38252574811942        0.99783661757014
N           -1.51460056008867        0.47219317536669        0.36472444384396
C           -0.26141826072067        0.44742733983134        0.66678238599809
C            0.71619259273532        1.41268930851982        0.02974196843631
C            1.07689870650210        2.51167437657482        1.03482007212529
C            0.11464911955345        2.01804995300755       -1.24141919173797
N            1.96090739363044        0.70083676398334       -0.29544678699592
C            1.99188858596522       -0.38354749662220       -1.09380068378013
O            1.01488291490169       -0.94392490894237       -1.56253992447032
C            3.37312688581930       -0.87723926699659       -1.34375535915054
N            3.72243623803192       -1.93670816696826       -2.00457812149702
N            5.08502913353953       -1.99288021879458       -1.96698622252847
C            5.48170439591148       -0.96395848414810       -1.28670664294575
C            6.86988790169012       -0.57241740161287       -0.96062483804642
O            4.44880910601683       -0.21716546035643       -0.86204471331688
N            0.23361496195653       -0.40847878421053        1.61902251520557
C           -0.53419774759562       -1.31418789104911        2.32024795706565
O            0.00856096739025       -2.04378110642326        3.15519506653333
C           -1.97908892209304       -1.30180610102173        1.96936888585858
O           -2.77951158158140       -2.10326731170930        2.56505814906882
H           -5.15941685739966       -1.96541846335321       -1.97337407106766
H           -5.65077998718063       -0.28674853395688       -1.65553966507033
H           -5.92224951609944       -1.54521149992402       -0.42059497387716
H           -5.28595576348550        1.27817034068572        0.11204577997910
H           -3.63082627018498        1.63556002462847       -0.43587301812559
H           -4.04593651397276        1.74308290423421        1.28676485947273
H            0.17736500366934        3.05249357838912        1.32499241961434
H            1.78098343787337        3.21270751064609        0.59093117663339
H            1.52783431146629        2.07452427710145        1.92410784510067
H           -0.14774551098329        1.23047417918436       -1.94729110126247
H            0.82887946666671        2.69452106732343       -1.70601053304159
H           -0.78773130184173        2.56986797430578       -0.98181570752192
H            2.82786733744254        1.13262855168916       -0.03094309360656
H            6.99235493972789       -0.50104547350980        0.11952065143706
H            7.56250534943298       -1.30892676798810       -1.36005523595157
H            7.09042577873927        0.40496796121915       -1.38844566905869
H            1.21362907392110       -0.37070243211355        1.84518557696501
H           -4.10388092359265       -1.49187183659537        2.04721017046027
