47
 energy: -79.495512132832 gnorm: 0.000354038128 xtb: 6.5.1 (579679a)
C           -2.75838006868675       -1.46791967025858       -1.79214353441066
N           -1.91725164027420       -0.30167780958771       -1.49936809305117
C           -1.08864910648859        0.06941720476293       -2.51900209902915
O           -1.02716813152092       -0.48248664580781       -3.60508960915311
C           -0.23949916149361        1.24806807460454       -2.25709796418821
O            0.51247342744454        1.64527349160293       -3.21979763122353
C           -0.16583853244686        1.84597604585202       -0.95374844883695
C           -0.09475471997921        3.38317664935879       -0.91008879345759
C            1.32360252979162        1.43625220839107       -0.39866436966391
O            2.28050184948879        1.64983623909034       -1.08929407907740
N            1.26440337089850        0.95412225930179        0.82119837547221
C            2.50014442643291        0.61337663407443        1.54791335995333
C            3.15413880889717       -0.59269059090327        0.91993503314164
C            2.61845157103173       -1.86193545939579        1.13027495983423
C            3.19966584387271       -2.97591521700784        0.54309800447934
C            4.31664809948152       -2.78982390570523       -0.25335437408782
F            4.88266916975408       -3.86059729942192       -0.82454584173178
C            4.86796908827322       -1.54263447935117       -0.48825241769212
C            4.27310236849790       -0.43854527117248        0.10507994221672
N           -1.12565336516202        1.35512547168707       -0.04034988921193
C           -1.92422735187482        0.38020818203534       -0.28815213254650
C           -2.85406595685497       -0.01585789701873        0.85177026704539
C           -2.82015747755572        1.07416759301946        1.93489405585859
C           -2.36671564804460       -1.34152623213677        1.45337347272370
N           -4.21579383528622       -0.17146431978297        0.35504577895961
H           -2.97583831468745       -1.46471568252998       -2.85989130496445
H           -2.21080376228645       -2.37442097579017       -1.53649911692057
H           -3.67770559633180       -1.40263993582224       -1.21523937959665
H            0.40234805308739        1.08048501130807       -4.01947476929566
H            0.70815346954662        3.73053765073686       -1.55730588161417
H           -1.04708326314838        3.78433044934336       -1.25012968503291
H            0.08338752509868        3.70245588578539        0.11374890118311
H            0.37436276623257        0.85437387526483        1.28492363021532
H            2.20172863831950        0.41306972297237        2.57737517318117
H            3.16509995802821        1.48073254329143        1.52034257454768
H            1.73965308655349       -1.97805093557368        1.75246362838203
H            2.79499632698533       -3.96757071549772        0.69651942117908
H            5.73818342232326       -1.43934124009473       -1.12367868583323
H            4.67686022546078        0.55147120447406       -0.07135489917045
H           -3.07850203533108        2.04051180082262        1.50554492748954
H           -3.54041992299894        0.82578867912212        2.71240950328654
H           -1.82795006078955        1.14028256588707        2.37767686125523
H           -2.95947303747522       -1.57389130040123        2.33681412252266
H           -2.46617385214719       -2.15863794766562        0.74236265897136
H           -1.32098016722305       -1.25081449030574        1.74472787507580
H           -4.58234100160005        0.73378928965447        0.09303292152441
H           -4.79311901582165       -0.53966971121985        1.09911355128610
