47
 energy: -80.234062520955 gnorm: 0.000879907875 xtb: 6.5.1 (579679a)
C           -3.69278261332806        1.35031387629345       -1.51498654275127
N           -2.37252313831702        0.77676510005794       -1.27360182403575
C           -2.16677139995425       -0.42544418769113       -0.59098058527523
C           -3.32944861939426       -1.29993731743522       -0.11514526275470
C           -2.77157785934344       -2.63939091784375        0.39940035685505
C           -4.08816286890755       -0.61686338660250        1.03201358383204
N           -4.26702662520612       -1.55857777674854       -1.21477362952771
N           -0.98972050574549       -0.88095026104810       -0.36788020391035
C            0.16019705757457       -0.21890003796285       -0.85434833591012
C            1.37955502097069       -1.00033634313196       -0.79885170674684
O            1.46627612703764       -2.12573678769406       -0.28185143836276
N            2.48360500963718       -0.44229885406320       -1.42442157905802
C            3.80086160261351       -0.97882838641627       -1.12201881418362
C            4.31382343003240       -0.43580481069137        0.19661643990196
C            5.12426572607692        0.69715238975624        0.22254758292046
C            5.57261347010956        1.22348047461816        1.42701139944849
C            5.18996768149472        0.59468203251041        2.59705349859004
F            5.62339132190022        1.09527429894463        3.77096733438019
C            4.38568664961053       -0.53054991193486        2.61150859762766
C            3.94794579665100       -1.04165519121722        1.39791237140204
C            0.06150061743837        1.08951441304523       -1.30083948842053
O            0.93936703822810        1.81669561561478       -1.83806833586096
C           -1.31488085740737        1.76888054055616       -1.07090086897955
C           -1.36379341900468        2.35900060711521        0.35874872647539
O           -1.43980936692165        2.80603021184128       -2.00978619213488
H           -3.62113999757618        2.04486625084426       -2.35514827192124
H           -4.07245173817611        1.89855316729734       -0.64521439954167
H           -4.39652663962884        0.56270672657394       -1.77845372477087
H           -2.10932003138400       -2.47140129474221        1.24895385007485
H           -2.20700626949668       -3.14041660744520       -0.38677246748620
H           -3.59274769158606       -3.28389639204970        0.71008208581289
H           -4.80913187269672       -1.31044405840619        1.46491321335369
H           -3.38891542486042       -0.31130060482592        1.81046612845040
H           -4.63067758017505        0.25951786920974        0.68387782598466
H           -3.83297290780809       -2.17241882320134       -1.89337305314203
H           -5.07441197095812       -2.04149921880176       -0.84740923906821
H            2.45781338795154        0.55870463168252       -1.59192979047425
H            4.48095754178366       -0.70189911251639       -1.93286980844955
H            3.72941572436633       -2.07121660780976       -1.07961933763833
H            5.41953685837408        1.17266667369938       -0.70601745296423
H            6.20722806592924        2.09927956432816        1.45926593518042
H            4.11536803071744       -0.99364789923911        3.55173204045582
H            3.31626197145882       -1.92380978160923        1.38368742750383
H           -0.53555824190556        2.92971175074892       -2.37358220748932
H           -1.31035122716962        1.56031850299038        1.09689130807230
H           -0.51556084675050        3.02876476418674        0.48879741433234
H           -2.28236941625356        2.92434510921668        0.50430644019669
