42
 energy: -82.885183811731 gnorm: 0.000594187977 xtb: 6.5.1 (579679a)
C            6.90209415434747        0.17114894551454       -1.32898182357275
O            5.71616491545207        0.74974203616073       -0.77558478474525
C            4.61489054767217        0.01348072062729       -0.83261270572004
O            4.57180037893574       -1.09345687597894       -1.32062432704135
C            3.41578938087208        0.67452824688487       -0.22502543585157
N            2.35646192547096       -0.12785655192581       -0.13588399787360
C            1.21804707080723        0.29133171237471        0.37644204183641
C            0.09400344829272       -0.69616393237533        0.48620708902727
C            0.03545630918268       -1.57480149604746       -0.78187698403942
C            0.42203460434989       -1.56942190301084        1.71978499811092
N           -1.15361503503338       -0.00345277700284        0.66074393660853
C           -2.43169966405505       -0.71682075326770        0.80469652104783
C           -3.20470553445151        0.04933563826892        1.95194880961765
O           -2.38617601436733       -1.98421639561412        0.98989818358579
C           -3.20111295886349       -0.32091158730310       -0.48216514256325
N           -2.68741811129735       -0.10110234675135       -1.64600282092087
N           -3.74449072849718        0.13241080985689       -2.48496386868990
C           -4.82078446847108        0.04370403579882       -1.77162562691896
C           -6.22311258730019        0.21528383493052       -2.20964053760969
O           -4.53957313828621       -0.24340667847161       -0.48518333928496
N            1.07915299225146        1.53933722473925        0.86623332904878
C            2.08162347000134        2.50549026065950        0.84751123768607
O            1.88267670133656        3.59848909794492        1.32451855766088
C            3.38625814837667        2.06042503595417        0.20949106725482
O            4.30674235772974        2.85568467598717        0.10006486876422
H            7.70350053346771        0.88867759159812       -1.16560786711526
H            6.76573908124744       -0.01204893854990       -2.39743042568301
H            7.12692966157016       -0.77285376845507       -0.82693535885754
H           -0.68399574728372       -2.37727413447032       -0.63623705719266
H           -0.27376103343114       -0.96496663937428       -1.62921911396806
H            1.02141654527949       -1.99607342561098       -0.96816351213453
H            1.41690308057506       -1.99357294270569        1.59804648477910
H           -0.30466666142277       -2.37261413972378        1.81070394654456
H            0.39652330427889       -0.95412429156862        2.61661233475141
H           -1.23813087425508        0.89079669566342        0.20207400040759
H           -4.19687439776038       -0.38622188101430        2.02580987262768
H           -2.65037100846364       -0.11246561448873        2.87119688428553
H           -3.26587205281400        1.10785720653472        1.72316927422856
H           -6.24961189777015        0.41969274466245       -3.27735864733732
H           -6.79470730867730       -0.68733820755924       -1.99401265806054
H           -6.68174691033372        1.04231476631321       -1.66794739385694
H            0.21821852133372        1.81143400079304        1.31618599116299
