33
 energy: -57.848672458266 gnorm: 0.000421931719 xtb: 6.5.1 (579679a)
C            3.02529361879952        3.23381361032783        0.00263701747464
O            1.95498243882574        2.27021840848294        0.01351833468327
C            2.22016799296969        1.02148670837408        0.11438023409303
O            3.45951944539051        0.67131887834646        0.20642741003852
C            1.11412654452549        0.09039800250489        0.11805746281823
N           -0.12189181542982        0.67295607128264        0.00368732206686
C           -1.17490422176495       -0.07596983715512        0.00398565979607
C           -2.54604485581741        0.56431318823787       -0.12952834864820
C           -3.20707274192636        0.08686161400797       -1.42974528029295
C           -3.40888583642808        0.20707831054263        1.08773060256545
N           -2.39366976230416        2.00773652471560       -0.18749368065902
N           -1.08367198870619       -1.43307940792618        0.11376847963613
C            0.08765162105815       -2.14517127324916        0.22705775594163
O            0.07757701776576       -3.35751969678306        0.31427742362893
C            1.28208512579856       -1.28168623725437        0.22982381262338
O            2.51173632435120       -1.77166182009354        0.33840843391747
C            2.78376576742599       -3.18190485095747        0.47261350414116
H            3.69046983150006        3.02572721484640       -0.83591865298092
H            2.55066915364381        4.20629913648699       -0.10538180219784
H            3.57868374750658        3.16916905604255        0.94002800702560
H           -4.16072410822962        0.59864098297587       -1.55358835422910
H           -3.38085856724381       -0.98711314418104       -1.40026041751384
H           -2.56803945306503        0.31769704055047       -2.28105916571303
H           -4.35003777548095        0.75232913671911        1.02840215013110
H           -3.61920614934811       -0.86051865682316        1.11067588504646
H           -2.89549634501617        0.48569450011030        2.00695523184937
H           -1.91203819059143        2.31733420809628        0.64802029518607
H           -1.79972303707806        2.23964498254292       -0.97477276820283
H           -1.92285927318901       -1.99846698942661        0.11702110613263
H            3.60547981392277       -0.29738835348319        0.27925009584140
H            2.31121065729968       -3.57095974498766        1.37506553245635
H            3.86671851599533       -3.25803768816285        0.54784582422288
H            2.42498650483873       -3.71923887471064       -0.40572511087789
