42
 energy: -83.010846694909 gnorm: 0.000758767590 xtb: 6.5.1 (579679a)
C           -5.32741893720466       -2.48929410876037       -2.34782119339242
O           -4.20598590561290       -1.89969468961406       -1.68499396051423
C           -4.47778004925433       -1.07645597289644       -0.67185958713448
O           -5.60184749283227       -0.82805715702473       -0.30428760151800
C           -3.23252435427508       -0.50923005834390       -0.06764348120285
N           -2.06022056984657       -0.94090604700781       -0.57454988215141
C           -0.93639235113276       -0.46354753815565       -0.09039243197024
C            0.35346752354233       -0.99798436437067       -0.67922523439936
C            0.58278538863947       -2.41764576121727       -0.13567988568898
C            0.25883016330843       -1.00451666688195       -2.21011686725908
N            1.43469286981554       -0.11868029163257       -0.24306592147627
C            2.72362408336203       -0.27505838504298       -0.58924858409380
O            3.16771818007495       -1.15463635664101       -1.30903115218543
C            3.56681860213489        0.78763027468777        0.02229798930766
N            3.15488330091805        1.73543529801638        0.81034363119651
N            4.24845035500108        2.48394018811581        1.12961329838620
C            5.25767226947980        1.94443700238170        0.51598549566389
C            6.67036414130712        2.38419175469940        0.54010571684690
O            4.89148385163309        0.87031067495413       -0.19887122174887
N           -0.85369706179026        0.43528912288976        0.90446230665264
C           -1.98184487238401        0.87318133320915        1.42214280382809
O           -1.97772324133587        1.76908269804257        2.41386172514999
C           -0.70628861576890        2.20499818124681        2.89657759489847
C           -3.24545203486818        0.42254067571480        0.95984498389683
O           -4.37807234319408        0.89223648456714        1.50399306615797
H           -5.90997877622897       -1.71716336881230       -2.85646472721084
H           -4.92573028400962       -3.19571116173187       -3.07140418918495
H           -5.96432892250177       -3.00596724774623       -1.62568342482840
H            0.67305389094049       -2.38852136446561        0.94902552075449
H           -0.26402209922237       -3.04635317348026       -0.40630944544338
H            1.49290866192411       -2.83858958542986       -0.55959490536976
H            1.14047724495729       -1.47328144874869       -2.64303903696371
H           -0.62746061963324       -1.56252277002147       -2.50857389098993
H            0.17679585853157        0.01610869216953       -2.58089263086125
H            1.18209743305668        0.63242358668887        0.38780946769859
H            7.01993474884737        2.57287529733150       -0.47486097771314
H            7.29604341777773        1.60314511244300        0.97245527036679
H            6.76059292107822        3.29094270565912        1.13234165185225
H           -0.12180798199908        2.63955450759578        2.08133296717983
H           -0.90635319329711        2.95330213892164        3.66119511522400
H           -0.15836185548773        1.36119983363546        3.32420234060681
H           -4.18940334444452        1.53099295505936        2.20602128764079
