47
 energy: -79.484203270403 gnorm: 0.000443347406 xtb: 6.5.1 (579679a)
C           -4.27680030103292       -2.06543069950388       -0.86442402345328
N           -3.01040746545425       -1.34050347532887       -0.71525510935829
C           -2.91603877440336       -0.07466220766434       -0.19247676418147
C           -4.13493096207045        0.70950077156166        0.27596588293934
C           -4.79940625011259        1.36876646071416       -0.94230064230027
C           -3.68063080909133        1.80169957161827        1.26045898507653
N           -5.08883656473809       -0.17330019315967        0.93432899792043
N           -1.78071469899157        0.54546236359098       -0.10470559614673
C           -0.60865472825507       -0.03393754175367       -0.49609716718897
C            0.58934556465795        0.82060904138472       -0.28430039571419
O            0.56378521432329        1.86517763726984        0.33846432650762
N            1.75297432680308        0.36161160320316       -0.86177925613749
C            2.97484748869049        1.03204243902864       -0.64590041765444
C            3.79682338908518        0.37503149908478        0.60550932125376
C            2.85852924555574        0.42568768384905        1.82735431222192
C            4.96744228596774        1.24367537871170        0.77501750395596
C            6.22617151361995        0.84981007688460        0.42478282931001
C            6.41424539597615       -0.45490443299686       -0.04772415126090
F            7.62268644827104       -0.82912244641423       -0.37971639717156
C            5.37224418188018       -1.38346604976542       -0.16259806207295
C            4.11186172300848       -0.99564585200453        0.18636151337107
C           -0.62595883559163       -1.31374387435274       -0.97228966642744
O            0.46702809217192       -2.00823944140977       -1.33886237881958
C           -1.88178896346999       -2.03437264454588       -1.10159134096228
O           -1.91241669847226       -3.18131756472325       -1.53844974151596
H           -5.05419570567320       -1.39284174778153       -1.21183858542957
H           -4.56820725568411       -2.49066878058121        0.09437647637932
H           -4.12453901132598       -2.86379093826125       -1.59027498369412
H           -5.17027648207201        0.62036447427914       -1.64039377544520
H           -4.07879144598454        2.00290766735409       -1.45740030152169
H           -5.63686936659696        1.98185274019733       -0.61211021788838
H           -4.55242510945567        2.33948955680187        1.62903184145056
H           -3.00888200166723        2.50320005734718        0.76741923322375
H           -3.15982857098252        1.35096405441074        2.10384568801785
H           -5.94658174183450        0.33051235075054        1.11225817965578
H           -4.71470034397007       -0.47721563959585        1.82329213428639
H            1.76933693621351       -0.51998545103128       -1.34989852102694
H            3.61557322151597        0.95935023999976       -1.52179069571088
H            2.78346482128578        2.07190711729011       -0.37526235064579
H            1.99704539835983       -0.21511431285618        1.65288605338187
H            2.52178516020218        1.44639239263405        1.99895269510788
H            3.39790575234812        0.06866882981673        2.70224558852488
H            4.79678774476841        2.24176205396180        1.16242673941843
H            7.07993876750691        1.50879514903631        0.52480922838607
H            5.58668690581810       -2.38806552924471       -0.50559233664137
H            3.28570464755914       -1.69397383440521        0.11680292362904
H            0.17966586133642       -2.89493755341098       -1.64041757564195
