46
 energy: -87.071352899199 gnorm: 0.000433413206 xtb: 6.5.1 (579679a)
C           -3.68060446202645        3.08383059106877       -2.47745898232765
O           -2.93673688363879        2.07578697310829       -1.81719816669351
C           -3.61661955553522        1.41341466696512       -0.79809515782833
O           -4.77273750910119        1.76630940378392       -0.51838256182396
C           -2.84870504291637        0.41012895168716       -0.17922119259917
N           -1.59659065586138        0.14059194231759       -0.66553704457271
C           -0.75287790333325       -0.57304561897787       -0.00875881441050
C            0.50148624211006       -1.04880125142280       -0.71977556892882
C            0.57471388235454       -2.58258703795301       -0.69804479063313
C            0.47066819700313       -0.55704433256871       -2.17443000070807
N            1.68568708936634       -0.45269530855590       -0.06636998392006
C            2.95944953312086       -0.73241724052340       -0.39162972407647
O            3.33611387260447       -1.59590244011655       -1.16685756551053
C            3.89745990798026        0.15608639091571        0.35271978725438
N            3.56116947797037        1.09488387299026        1.18517772289526
N            4.71981201099582        1.65925862911219        1.63146055404410
C            5.68805708280242        1.02882617867782        1.04097113829916
C            7.14089235021490        1.26579368176181        1.18787912361618
O            5.23405724226541        0.06892287735798        0.22073800945725
N           -1.00941025850803       -0.94793644380736        1.34173840446376
C            0.08082495950871       -1.07935346119158        2.30774587674041
C           -2.22716436614987       -0.66512127629746        1.88934996742356
O           -2.37588731386909       -0.51050829519993        3.10462020673643
C           -3.36872065290992       -0.53496581933892        0.88247411644817
C           -4.64243206115227       -0.08859625884680        1.60131291983862
O           -3.56292257643107       -1.85853417379586        0.33477409055517
H           -3.03117734786836        3.51641043000431       -3.23959457107944
H           -3.99331656409745        3.86821128921692       -1.77790158422482
H           -4.57463400641506        2.66675030733486       -2.95600493340156
H           -0.37960607818353       -2.98069927143472       -1.04182550567108
H            0.76759023867832       -2.95800863792667        0.30467182846746
H            1.36139498970562       -2.94057986247411       -1.35924896859974
H            1.37296314684998       -0.87415401052407       -2.69466733961294
H           -0.39840864719036       -0.97142019796999       -2.68317078924260
H            0.40499137002894        0.52995564309870       -2.20026480739547
H            1.53115108340446        0.36856000565199        0.50190506264152
H            7.31022821422187        2.05827913796266        1.91242530556333
H            7.57147941703030        1.55128436783124        0.22829524211611
H            7.63570517136368        0.35405032979228        1.52134142173622
H           -0.29970549922332       -1.60271533169833        3.18559013299485
H            0.44140013409671       -0.09393290462606        2.61420910570314
H            0.90366330125345       -1.64839449524572        1.88624940403833
H           -4.51756785887657        0.91578562700575        2.00216500838227
H           -5.48597289235480       -0.09460380481458        0.91512397269690
H           -4.84996799599831       -0.77584021290001        2.42195662864330
H           -4.22919378329451       -1.82526460944680       -0.35976497750802
