42
 energy: -83.601822067533 gnorm: 0.000329180127 xtb: 6.5.1 (579679a)
C           -4.28259482354049        2.93111676600744        0.88655569273364
O           -3.72496790412180        1.65213417593186        1.15407314728498
C           -2.68750369558823        1.26942427890238        0.35765701143033
O           -2.24406891675608        2.02059028290086       -0.49845795162218
C           -2.31792147458783       -0.21193269532041        0.54296129409997
C           -2.44836705373917       -0.63887863616428        2.01778171932762
N           -0.96065560144872       -0.44121683255333        0.08622701793128
C           -0.80125979173209       -0.92359659444659       -1.12415486034591
C            0.65782807826668       -1.07561975146815       -1.59267048555682
C            0.97202234778630       -2.57283384860518       -1.73868060572567
C            0.83272617893977       -0.36165422855354       -2.94071888341084
N            1.52036963976683       -0.47416517134889       -0.58236567668501
C            2.86574245856074       -0.41292549033013       -0.62902371092915
O            3.56509069131027       -0.83548996013418       -1.56100370653305
C            3.41747035977050        0.23428098015505        0.56566974915250
N            2.72978166795705        0.71365158100591        1.58057496476873
N            3.63863856364778        1.23367413710651        2.46012374114277
C            4.81026904688257        1.04745574116709        1.94396146392785
C            6.11726047600107        1.43951816575671        2.52244305556222
O            4.75722221351871        0.42391871154406        0.74953120342350
N           -1.68481642251271       -1.34174578195545       -2.01824761648483
C           -3.02801858677447       -1.35954155098013       -1.62273445885641
O           -3.92476824014111       -1.86865316962693       -2.37136771827316
C           -3.32637829715941       -0.85425233890173       -0.35767450238712
O           -4.66259373908334       -0.90633782332596        0.09571620416412
H           -5.07992670588873        3.09189337873526        1.61089290088030
H           -4.69129678748164        2.97551744759464       -0.12849468886558
H           -3.52493896748347        3.71439729254038        0.99522488063326
H           -1.81191785568266       -0.01857000078240        2.64868354298854
H           -3.48048866236144       -0.54748732570852        2.35297097866182
H           -2.13399931394845       -1.67752381616317        2.11681803223134
H            0.23712446919687       -3.02173326281065       -2.40792012878042
H            1.96968303076836       -2.72614917421011       -2.14904223040119
H            0.91083055309981       -3.06479532282352       -0.76766077277560
H            0.70743739422432        0.71456237046714       -2.81574039427275
H            0.07101707080126       -0.72693025636244       -3.63108140814527
H            1.81841841483375       -0.55535955452350       -3.36256913840517
H            1.03199211778786       -0.13873017266264        0.24969278367144
H            5.95791523854943        1.93044354083615        3.47914559321675
H            6.64003524132044        2.11931154524986        1.84997429643973
H            6.74543196798263        0.56090537791111        2.66749822034328
H           -5.15782338094742       -1.31667401405137       -0.63456755556184
