42
 energy: -82.948609503274 gnorm: 0.000248484784 xtb: 6.5.1 (579679a)
C            5.26310065783052        2.99331304103419       -0.14725015410125
O            4.21056494527301        2.02994159807066       -0.16225993195509
C            4.31730671351681        1.05202938481664       -1.08387479258871
O            5.24924671701151        0.99828108229836       -1.85799055355903
C            3.19181065333743        0.09831657013919       -1.01354254767534
N            2.26391758295275        0.35378926500562       -0.05686079642761
C            1.26243585918039       -0.44561376240275        0.12926527962846
C            0.27852565781124       -0.16255200709372        1.23884644377614
C            0.45760995252506       -1.19773894622113        2.35832541301582
C            0.47469179646060        1.26382097474485        1.75547955902633
N           -1.08003345561821       -0.30449836227130        0.66428040142576
C           -2.18055953105736       -0.11427695814617        1.38173031245630
O           -2.26395728698830        0.23111902082335        2.53712944789939
C           -3.51677552331549       -0.40704868779890        0.58893227146946
C           -4.26006310113377       -1.51405079933201        1.33889759954856
N           -4.25727184052204        0.80538117405908        0.50911170735546
N           -4.41577474614904        1.11584808012412       -0.73559373537443
C           -3.83730896130058        0.17311493669454       -1.48320765071977
C           -3.79945178251057        0.14037519905488       -2.95166984941849
O           -3.27315140254323       -0.76468663371802       -0.75528139994137
N            1.09032834037779       -1.57672401599635       -0.61803444275520
C            1.93300599597637       -1.95693434537617       -1.64828636070906
O            1.70543327381755       -2.97480850707368       -2.27511772534133
C            3.10933825301198       -1.03333484127711       -1.89324104667211
O            3.90430312376705       -1.29763286695208       -2.79519413489034
H            5.01288255452047        3.71903322043653        0.62423917606797
H            5.33998977070297        3.48906109013112       -1.11895820173361
H            6.21625543694483        2.51055247314825        0.08594676628471
H           -0.22824398754320       -0.98812658711266        3.17667523909750
H            1.47984424236443       -1.15422240110342        2.73123299866759
H            0.25915447162485       -2.19705973330423        1.97643015910519
H            0.28783621382598        1.97761480974522        0.95469298808928
H            1.50210080261961        1.37974114204099        2.09735051259179
H           -0.20146884060030        1.46441270427892        2.58346289012957
H           -1.16603734221469       -0.64091757339613       -0.28027600897048
H           -4.40517593284456       -1.19758116068349        2.36968676677174
H           -3.66868525896059       -2.42550991357989        1.30990039776550
H           -5.22121214857123       -1.68549837686884        0.86034822637350
H           -4.76306809794072        0.45397817725110       -3.35144004725220
H           -3.54632637340487       -0.85773474240108       -3.30117136745230
H           -3.04603916881381        0.84395115250176       -3.31287966785952
H            0.32091776657650       -2.19712287428803       -0.42983814114856
