42
 energy: -82.992827976597 gnorm: 0.000452288078 xtb: 6.5.1 (579679a)
C           -4.98869771267098        3.13302536739373       -0.22039990614689
O           -4.52455357994174        1.81833595550693       -0.52748817525421
C           -3.24233828604187        1.56526533259339       -0.25115535656417
O           -2.51806212969182        2.41426745278781        0.24393185468061
C           -2.81760283093852        0.21481273440916       -0.64686589933572
C           -3.53208904052914       -0.50987381042762       -1.64171662510753
O           -4.61163954934116       -0.18845190451038       -2.13880828444393
C           -2.86163682979286       -1.76601406992762       -2.13790126924441
O           -3.33120762411239       -2.54360187406121       -2.94172600553439
N           -1.58639457689472       -1.98923256320860       -1.63918513076944
C           -0.96879340267664       -1.30005857238525       -0.65265645646113
C            0.38995580963194       -1.83637503253077       -0.21129750351636
C            0.19326951343780       -2.78148122502912        0.98504001100491
C            1.09234656402240       -2.59656436300527       -1.34863971953613
N            1.23811543974121       -0.68744148283578        0.11369197500821
C            2.43368051712355       -0.79924581775191        0.75469038918420
O            2.84490454001498       -1.78617997260370        1.32875868569628
C            3.16821068702463        0.48698787837058        0.68985886098996
N            2.77259259728627        1.56380691836290        0.07884830881746
N            3.74541373166584        2.49770268418775        0.26069402170036
C            4.67527453077072        1.93087707211254        0.97046898443752
C            5.94740927317904        2.52380764482868        1.43723737669506
O            4.36741859092463        0.66121155198130        1.27161465544326
N           -1.59734965349372       -0.26529273292039       -0.13466979844753
C           -1.09360095321692        0.37256018569155        1.09093185645169
H           -4.88672469111207        3.32861072664199        0.84990126976948
H           -6.03733853512284        3.16975621222155       -0.51096804914793
H           -4.41513949443834        3.87870249101636       -0.77687493399657
H           -1.13258477552811       -2.80369694650547       -2.02286699529184
H            1.09891585858496       -3.35988466446273        1.15322730287062
H           -0.04283818621132       -2.23412584633850        1.89441500648599
H           -0.62340837187555       -3.46573456762501        0.76077082601122
H            1.11384874784417       -1.99745175265716       -2.25685648700754
H            0.60692841990670       -3.55018799543580       -1.54579930557359
H            2.11613036950611       -2.79946079981459       -1.03825800501555
H            1.13609117085136        0.11930850933729       -0.48707136916339
H            6.01202292516400        3.55856095640964        1.11028298975771
H            6.78945692012141        1.96017613863397        1.03546929043952
H            6.00084463449104        2.47878061706269        2.52485813396870
H           -0.51165212002816        1.25612424068745        0.83698377614265
H           -1.94133883936861        0.65536309130711        1.70933717835811
H           -0.47784165826900       -0.32768776749566        1.64117452164140
