42
 energy: -83.612444255646 gnorm: 0.000575483461 xtb: 6.5.1 (579679a)
C            4.41453921705543        2.92844870214167        0.27232175603867
O            3.43120067005262        1.92453595479316        0.37599751820026
C            3.69286894199999        0.75525679756867       -0.38737698740059
O            4.74419206157693        0.73701849094498       -1.06041320082142
C            2.68336495184524       -0.20727290507075       -0.29287084745510
N            1.63169825009381        0.07684625414154        0.54926747396078
C            0.57655171533292       -0.65217341623236        0.57538077907933
C           -0.53397812498965       -0.38417008810433        1.56823351877963
C           -0.16805627812682        0.83314041284459        2.42442392975138
C           -0.76588418456007       -1.62276256911125        2.44753143839113
N           -1.76967516946449       -0.09427906061612        0.80511500715765
C           -2.95120009393587        0.20807643334626        1.37201510153892
O           -3.17928887826647        0.23826234089073        2.57977433431475
C           -4.01143070412066        0.51496811445021        0.38548622166222
N           -5.24159486148594        0.87149486476704        0.63273576960146
N           -5.84800538737318        1.05674229066211       -0.57657543195905
C           -4.95892834446667        0.80363546763974       -1.48458389344091
C           -5.13003300037697        0.85465017784588       -2.95390606889272
O           -3.77484313129048        0.45597772589070       -0.94940296121635
N            0.37179937777766       -1.71766876213205       -0.32852021619254
C            1.30516625155105       -2.00097878396975       -1.29193067722212
O            0.95869198814978       -2.61956473674749       -2.30486399440110
C            2.77713141278007       -1.64259686316438       -0.89859748202973
C            3.59599836095135       -1.62571886610133       -2.23033901084711
O            3.19593842553353       -2.58109261577374       -0.03279562997754
H            5.39113922828176        2.58024775287694        0.63573569902078
H            4.08904710189607        3.77184883797494        0.88486137716058
H            4.53706483255239        3.26852854749793       -0.76482179626177
H            0.78162161673587        0.64691623494304        2.92558676444935
H           -0.05768424085848        1.71173546145826        1.78933370607924
H           -0.93372786478187        1.02589985085517        3.17314518957564
H           -1.53752687457546       -1.43217344980562        3.19115681226780
H           -1.07238315140014       -2.46670619575005        1.83107290274736
H            0.16056037514972       -1.87792355268446        2.96177244497849
H           -1.70197325537462       -0.03907094978875       -0.19900476344477
H           -4.37483842422008        1.50180515047140       -3.39793967089719
H           -5.01259626478035       -0.14268225184161       -3.37886801030181
H           -6.12105141437235        1.23285189339716       -3.19171295803761
H           -0.57681236773735       -1.98468423006568       -0.53049255580815
H            4.65719888366166       -1.53022975831165       -2.00577785706280
H            3.43844677821200       -2.57131875620198       -2.75210913427006
H            3.28728757536518       -0.80581394593189       -2.87988159681959
