42
 energy: -82.941461144989 gnorm: 0.000841088717 xtb: 6.5.1 (579679a)
C           -5.78365060761245        2.06119470709819        0.42230162709928
O           -4.51243743931149        1.42419241507598        0.22435202767369
C           -4.44769468711762        0.13457673579811        0.46178287413691
O           -5.38844786920267       -0.54089032242483        0.83442241251756
C           -3.08749059381674       -0.45659600878608        0.23444065720784
C           -2.86865052513648       -1.83553535115834        0.51916754454990
O           -3.81588308694044       -2.61543197436495        0.92966640729468
C           -1.49946510667144       -2.41926794552818        0.35728388432695
O           -1.27123978739288       -3.58842130122563        0.65359828228570
N           -0.58286971992055       -1.56851059951788       -0.12950485530815
C           -0.86018308500754       -0.23481128586019       -0.46942455330018
C           -0.64354793728282       -0.09862197242308       -1.99912813670355
C            0.18402553452622        0.67799864930955        0.29374762447728
C           -0.10124321005826        0.59354509313878        1.79649797935544
C            0.11569391240723        2.12214894317044       -0.19276619657916
N            1.47936546097421        0.07719171033166        0.01271231118582
C            2.66623089393834        0.66301237981242        0.28182080148206
O            2.83067197739256        1.81283572554635        0.64607357291352
C            3.78394527822786       -0.28911117795086        0.04915918767238
N            3.67391228551635       -1.54224052508043       -0.27384378257958
N            4.94032918415169       -2.03171348472978       -0.38553590064608
C            5.74279044478630       -1.04514394613310       -0.12253303868965
C            7.22206718401227       -1.06031290898633       -0.11619108562406
O            5.07279988391810        0.08109926945157        0.16204186207414
N           -2.14062657610583        0.30890214146334       -0.21947161557096
H           -6.13052485804572        1.88354718246972        1.44167358754354
H           -5.62574937438289        3.12301251119958        0.24864569032156
H           -6.51002687104924        1.65960691258619       -0.28626142600616
H           -4.68535860726866       -2.13876616066548        1.01557028675349
H           -1.26181408223256       -0.84117083690553       -2.49829213700064
H            0.40363073530680       -0.28149294425791       -2.22693625479368
H           -0.93424223297674        0.89356253980927       -2.33146229464304
H           -1.07582874561636        1.02739281961536        2.01146212092326
H           -0.08799671198465       -0.44263778360234        2.13075501826825
H            0.66338466284628        1.15098458086787        2.33621760613985
H            0.57539428346142        2.22767067805414       -1.17328063745108
H            0.64175351366067        2.77187435605978        0.50491141885861
H           -0.92448600079083        2.43835381312617       -0.24631586800145
H            1.46682834742775       -0.92908245631878       -0.12985948611253
H            7.59384606399149       -0.76597173874111        0.86459103306263
H            7.57899625673689       -2.05800555957220       -0.35773842105522
H            7.60379281264042       -0.34896887975453       -0.84805812805753
