47
 energy: -79.518184178198 gnorm: 0.000985494403 xtb: 6.5.1 (579679a)
C            4.04513995519487        0.07774109093227        1.35717034108881
N            2.70397952563682       -0.19846402046053        0.82775457171461
C            2.27001527147506        0.23329795024612       -0.40283039729081
C            3.16525384800855        1.00712104826472       -1.36085615152159
C            4.05063955828868        0.00130898385766       -2.11328425076607
C            2.28600516568893        1.76612406015640       -2.36974230991171
N            4.00452113302214        1.94812699134843       -0.63181180275962
N            1.08202045600733       -0.03982034781238       -0.84514451580265
C            0.18728484967512       -0.76580413781495       -0.10579146473062
C           -1.09365934699641       -0.95193924636394       -0.77120440387316
O           -1.42528459815655       -0.53119094320017       -1.83536608776731
N           -2.09858034834527       -1.80762407047040       -0.01629317667997
C           -1.87623451788607       -3.21787833295408       -0.42649119566524
C           -3.50097159718665       -1.35995815351622       -0.29733696334351
C           -3.71877541800681        0.01391257348144        0.28035260227475
C           -3.85590141862977        0.16667472411290        1.65994619865240
C           -4.05505955312839        1.42370309807162        2.21056891673271
C           -4.11670932937820        2.51146423718796        1.35632545998082
F           -4.31136130673710        3.72678046122621        1.87907096611046
C           -3.98479362504839        2.39259698784088       -0.01677971516039
C           -3.78087063691094        1.12914396802475       -0.55237987936243
C            0.54858593534150       -1.20615921508698        1.14019712632746
O           -0.24358438538739       -1.91426157356286        1.94780327444057
C            1.87575343610329       -0.90804023650100        1.66880021262899
O            2.19949657121270       -1.28769560300359        2.78599262656099
H            4.78515292601790       -0.03318069202395        0.57185428816146
H            4.07787736748064        1.09444667066812        1.74504885567217
H            4.24253067330919       -0.63175239337505        2.15998676198661
H            4.71327803323336       -0.52678976258299       -1.43013769291375
H            3.42635085696290       -0.72689189105141       -2.62947125714472
H            4.65626041534996        0.53141742376569       -2.84686199913635
H            1.60060823743968        2.42840952712652       -1.84326627552656
H            2.92239945745897        2.36032348501469       -3.02314113714681
H            1.70626894173974        1.06890216413272       -2.97296781601913
H            4.70178399555070        2.32497805143478       -1.25957147341677
H            3.43728813219920        2.71811413588157       -0.30210194095927
H           -1.92476119257887       -1.74576011446026        0.99072592426305
H           -0.86605416870741       -3.49703826999373       -0.13851419653042
H           -2.00934527984949       -3.29502664385827       -1.50281864751351
H           -2.60057399319174       -3.83676406216405        0.09587381791309
H           -4.15368850964795       -2.09720090660144        0.17117561173084
H           -3.63619931129255       -1.37965584607508       -1.37955286103216
H           -3.80873524219065       -0.70158704306036        2.30533338651196
H           -4.16247959833118        1.55704929360302        3.27877260200024
H           -4.03783826361822        3.26902156067100       -0.65078805090624
H           -3.66528793711324        1.00875189508664       -1.62335166910522
H            0.23825383592559       -2.09892387615135        2.78337378723428
