47
 energy: -80.167276238201 gnorm: 0.000320366999 xtb: 6.5.1 (579679a)
C           -3.54592538230172       -2.25949021394486       -1.45092559523205
N           -2.27802042664963       -1.67285600146129       -1.02716936507842
C           -1.14035003438868       -2.06003069093774       -1.73358162561542
O           -1.16525248511600       -3.01401574970859       -2.58090687837006
C           -0.03705550115407       -1.19856309385276       -1.55446039161800
O            0.94525955464679       -1.27714507000885       -2.52689479450149
C           -0.03743657307218       -0.22496305113551       -0.54578835675991
C            0.70900829079856        0.99105732982052       -0.45311805970128
O            0.54659530086741        1.84324483214608        0.44413218231891
N            1.63650965626357        1.23684671393772       -1.47369529395346
C            2.67638542669315        2.22502128991568       -1.21633302968377
C            3.79820946208363        1.61590976220615       -0.40184430209911
C            4.92637689511304        1.10082444805696       -1.03712154615997
C            5.94080141283397        0.49618528541757       -0.30638891063369
C            5.79842453763086        0.41706136907961        1.06632317533578
F            6.77700484800264       -0.16883407641765        1.78440237007621
C            4.69478200989964        0.91849090844466        1.73254252139633
C            3.69144533024207        1.51845133471423        0.98523010067835
N           -0.94098022237292       -0.50901168841208        0.55725541154384
C           -0.48405448622983       -1.64131817692482        1.39518959430383
C           -2.22488923976780       -0.74453864069995       -0.02832928877058
C           -3.35782660436563        0.19336406746312        0.33268572093110
C           -2.79085269551824        1.42636800021433        1.06082884412938
C           -4.37416512367526       -0.50025904836068        1.26202777048141
N           -4.07994163536245        0.62502573034749       -0.87609301444536
H           -4.26521052835929       -1.47743380638729       -1.69854301566550
H           -3.95129914434416       -2.88346070458420       -0.65171749386955
H           -3.36669131798130       -2.88147741666585       -2.32992913778331
H            0.69149482171685       -2.01989066095845       -3.10558999490259
H            1.97955289085045        0.42293471622265       -1.96832785390911
H            3.05947771438949        2.58085519956647       -2.17759779789405
H            2.22841966868972        3.06935554206500       -0.68161868090882
H            5.02174417907281        1.17602267855725       -2.11443446667082
H            6.82305032241948        0.09680829898148       -0.78879636872070
H            4.62713733538978        0.83913269932670        2.80994321075636
H            2.81475017340566        1.91671094544431        1.48554583340290
H           -0.39009840247019       -2.57244697895972        0.82157032167216
H            0.48582200132679       -1.38717969896126        1.82455046452280
H           -1.20834372575939       -1.78668309026980        2.19762893624804
H           -3.59559188923986        2.13044633210919        1.26995230742211
H           -2.03776812886327        1.92168103858757        0.44732279762205
H           -2.32570703048532        1.12944096401668        2.00079667831552
H           -3.86021831552267       -0.90953088323160        2.13107691803052
H           -5.12471522982888        0.21357734372708        1.60198384122086
H           -4.88122524752453       -1.31134204393006        0.74242518587119
H           -3.49955341355416        1.26585114390997       -1.40437435654700
H           -4.90907804843169        1.12980081153926       -0.59722056677616
