46
 energy: -86.346977544499 gnorm: 0.000521762035 xtb: 6.5.1 (579679a)
C           -5.47527695384508        1.56950682644057        2.28429739008167
O           -4.48542969672266        0.63598023379408        1.81523698489496
C           -3.49482353575779        1.04486123524323        1.10227125631046
O           -3.46871357617266        2.30609504680049        0.84143057924288
C           -2.46279478981005        3.01522725429210        0.10414933271809
C           -2.53031838014757        0.04983492908213        0.68401379416803
N           -1.51467326176075        0.43882001104717       -0.15455852820034
C           -0.60904767557972       -0.39573858163866       -0.56223262049678
C            0.43372874399563        0.14307975908052       -1.53443229568348
C            0.21355469473736       -0.49729556636944       -2.91389319952949
C            0.31640364550302        1.66649107809472       -1.65851741004980
N            1.75905304673501       -0.16648019509351       -0.98763505793321
C            2.91006728462690        0.09684528316274       -1.66162181330103
O            2.98429812127164        0.43718882131842       -2.82681808207709
C            4.10967730114670       -0.11316339586999       -0.81767063124180
N            5.35241190497204        0.03848126680781       -1.15270413847018
N            6.09610597480284       -0.25990520949435       -0.05202903047829
C            5.26240374856883       -0.57594897947417        0.88933504229495
C            5.57228441623198       -0.97995557188772        2.27755876139094
O            3.98725964249301       -0.50341178578477        0.47059456854542
N           -0.61254146068491       -1.71525233127831       -0.18433505015297
C            0.36236371679429       -2.73293046979521       -0.59872578751137
C           -1.59586246264359       -2.22185961232139        0.63652865307066
O           -1.64592495051705       -3.39320311163893        0.97470002851924
C           -2.60313947835109       -1.26462453671501        1.09586540179513
O           -3.52716384136935       -1.75580822048949        1.89517129496688
H           -5.95804496248661        2.04714490754010        1.43116842975458
H           -6.18781921715611        0.98215825107607        2.85869144418381
H           -4.99462364555912        2.32331810339710        2.90828543361760
H           -2.46149663833250        2.67862089371088       -0.93184153402221
H           -2.74368830245427        4.06571863236292        0.16799739444578
H           -1.48511208337784        2.84678085502746        0.55351060000316
H            0.48240589516178       -1.55019219073272       -2.91413087975957
H           -0.83759239065267       -0.40046525504651       -3.18137858863470
H            0.81494389436083        0.01731460369513       -3.66111808821443
H            0.42963117270408        2.13357583586225       -0.68274718279764
H            1.09803505198862        2.03392846211980       -2.32212370708914
H           -0.65313817493666        1.93078769057687       -2.07445097892899
H            1.82131685452951       -0.24129407839836        0.01472410846280
H            5.06311059757322       -0.31921146135955        2.97795693527537
H            5.21779045858903       -1.99462256850674        2.45600155593654
H            6.64604391124307       -0.93435452882628        2.44295788666461
H           -0.10164697395016       -3.37475087037317       -1.34729350539935
H            1.25758529033383       -2.26873483623465       -0.99258190827240
H            0.60828005447096       -3.32910182757754        0.27956494897609
H           -3.34988297055188       -2.70810879562470        2.05083019293252
