46
 energy: -87.051244992208 gnorm: 0.000999347873 xtb: 6.5.1 (579679a)
C           -3.55691866343048        3.07533142112677       -2.25252918284152
O           -3.13603060133348        2.50386840692354       -1.01578071519480
C           -2.29681476544551        1.45211115898980       -1.09224844446337
O           -1.88869942677378        1.02899019598089       -2.15738750828632
C           -2.06714240188968        0.78490069793285        0.27260894557395
C           -2.00956751027495        1.81629387164252        1.40668498803760
N           -0.81195008496554        0.05338177429579        0.23679330237254
C           -0.76279141836808       -1.16727954911431       -0.17621232106964
C            0.66245427947159       -1.76501013509320       -0.20143787396434
C            1.05731799566252       -2.41599154283357       -1.53414007799263
C            0.83310694293404       -2.73176297230078        0.98061436188202
N            1.55992273252114       -0.62365093906172        0.01270513146280
C            2.88664940901000       -0.67465085441620        0.15250631654200
O            3.59141070437242       -1.67333466275545        0.08207357781415
C            3.44332240025884        0.68930222779691        0.39271211822390
N            2.76438711562004        1.79282581916683        0.47715050086113
N            3.66619640754334        2.79614365934242        0.68556499676009
C            4.83674702550541        2.23899172332195        0.71360849620158
C            6.14698369699488        2.89956919798487        0.90387725727530
O            4.76425224478517        0.91105879510930        0.53545938277087
N           -1.85698853174709       -1.90951717267169       -0.47906524368919
C           -1.83867163273539       -3.22751988881767       -1.09292647444558
C           -3.18290950735373       -1.45201830881131       -0.02357946780439
O           -4.13036277067193       -2.28981055528634       -0.00409500399315
C           -3.22459692637177       -0.15987505980510        0.39059719809515
O           -4.43923093425033        0.38901384942206        0.86879851183245
H           -4.12453438421819        2.34682205713683       -2.83795933735290
H           -4.18668886440368        3.92874240369867       -2.00905864642386
H           -2.69221434781345        3.40479601172455       -2.83512391647424
H           -1.20864133905441        2.53182932168527        1.22328635638433
H           -1.81456863453254        1.30294382504071        2.34756859267827
H           -2.95606256489396        2.34904763547836        1.48240476350471
H            0.65746656680869       -3.42192531107242       -1.61830341749367
H            2.14209607785820       -2.49141819684882       -1.59162431041579
H            0.70501268604318       -1.81378845076789       -2.37087145670640
H            0.13946738509139       -3.56518631756561        0.90271126789516
H            0.64429463818012       -2.20437572753042        1.91514309977450
H            1.84777953018916       -3.12644549380954        0.99455030925872
H            1.07261986013974        0.26339312273385        0.16750847660369
H            6.66194562461985        2.47075560505760        1.76292242859803
H            5.99979079301183        3.96494662913243        1.06130782188537
H            6.77270885842285        2.74528888756485        0.02505611422871
H           -2.86334330310408       -3.60774565153535       -1.09367925771154
H           -1.49111422930755       -3.16742937129507       -2.12598602519833
H           -1.21853284181783       -3.93196608054099       -0.53842029678156
H           -5.09755529029046       -0.31964605635360        0.81107766177815
