42
 energy: -83.622062378386 gnorm: 0.000310972495 xtb: 6.5.1 (579679a)
C           -4.55583993296654        2.95440987797011       -1.84487029966478
O           -3.76226896237083        2.39473759686070       -0.81624842015568
C           -3.02049330424909        1.29728377337822       -1.17019660125981
O           -3.06922612265669        0.88838335974527       -2.33328544283134
C           -2.21924786425965        0.71009216773924       -0.10458892950241
C           -2.16204444367514        1.26473496268637        1.21174313733239
O           -2.90306220202331        2.19258987368039        1.66232747981901
C           -1.07969789864298        0.71938282278484        2.08081514140928
O           -0.76319905221250        1.18796934789921        3.18371471186570
N           -0.31783806492213       -0.30588201809812        1.54954960386135
C           -0.87007602967311       -1.15688657051324        0.49632793820006
C           -1.89469623311960       -2.12902872729168        1.14296266333701
C            0.30923525774203       -1.92803649452157       -0.19089818852762
C            0.98849622114867       -2.94344703752751        0.74000157061982
C           -0.20284964684967       -2.63945177255786       -1.45073462445795
N            1.27091032830421       -0.88825951796836       -0.56764558265476
C            2.47755592893560       -1.14292800152321       -1.15737438894498
O            2.77975082167332       -2.22135301077409       -1.70194152771652
C            3.38577942176061       -0.01116413693888       -1.14829324312237
N            4.59209410474191        0.05555492264173       -1.69181727798332
N            5.07568658161089        1.30412285284716       -1.41644410128752
C            4.16817426503267        1.92594082846287       -0.73493942709947
C            4.23983480110983        3.30753575546837       -0.20080944632682
O            3.06728650515663        1.17059104456488       -0.52280401181979
N           -1.50933495300724       -0.37524186173892       -0.51725179516457
H           -3.93801996583341        3.28147508414389       -2.68903466672225
H           -5.07705248727996        3.81371577394727       -1.42227399293921
H           -5.29016822482164        2.22918344761562       -2.21378637808438
H            0.25812397916613       -0.77511906326325        2.23123071400110
H           -2.27892802669609       -2.82645603572506        0.40205814220457
H           -1.44240542674819       -2.68457227332865        1.96137779148229
H           -2.72815991022470       -1.54790054662820        1.53780829498716
H            1.33365856291532       -2.46588494673438        1.65561800746939
H            1.84799442589112       -3.38803060577256        0.23864717313502
H            0.29764960650771       -3.74303814398512        0.99986287063734
H            0.61948284371193       -3.10918040331343       -1.98751762559485
H           -0.91760723028296       -3.41442095112715       -1.17856620443329
H           -0.69675338908064       -1.91956092087414       -2.10567357970796
H            1.21576816352323       -0.04758375288044       -0.00175095362341
H            4.10713742004249        3.30229126028033        0.88119941552600
H            5.20931440249983        3.73612394950800       -0.44159747741147
H            3.45503673010946        3.92730909088774       -0.63577346879454
