20
 energy: -38.355201260223 gnorm: 0.000581755440 xtb: 6.5.1 (579679a)
C           -4.10585939145828        0.31431325864598        0.21352603436243
O           -2.75868911133444        0.05747505784273        0.56716755719268
C           -1.83203763127615        0.30307556768120       -0.44568280446340
O           -2.21292560824020        0.71049198676273       -1.55174087331090
C           -0.51980962581375        0.03187472770738       -0.02369518034344
N           -0.13820044856973       -0.41292121908697        1.17288336297907
N            1.14351621510967       -0.56622445731095        1.22822415299305
C            1.69998647893497       -0.18262673534466       -0.08169968142917
C            2.41087570010636       -1.38941511738954       -0.71523080509979
C            2.67099528085105        0.99579294841886        0.09422129976401
O            0.58899920914942        0.20615077299495       -0.87405494754718
H           -4.24589281583912        1.36385201297750       -0.07032050762237
H           -4.71675558264156        0.09049150984093        1.08861219805563
H           -4.42203538506802       -0.31874567259964       -0.62364667859286
H            3.23734052049219       -1.70387209658329       -0.08149974311973
H            1.70498601202513       -2.21261666225218       -0.81492594414122
H            2.79155810701762       -1.12637927069653       -1.70051519336516
H            2.14705419077732        1.83013505974736        0.55769313131893
H            3.49906425864900        0.69728570441832        0.73358242063536
H            3.05782962712821        1.31186162422579       -0.87284979826587
