46
 energy: -86.306646899018 gnorm: 0.000753435521 xtb: 6.5.1 (579679a)
C            5.87383233703896        1.97751717727837       -1.87286182013850
O            4.71034505339823        1.34262940358863       -1.32464945097254
C            4.74033826168954        1.06011524103298       -0.03618128559409
O            5.68356785595380        1.31243450475415        0.69090568773693
C            3.51031675581458        0.39394919525487        0.46582895469973
N            2.49803048721271        0.17613383393135       -0.40909229239107
C            1.40785047961275       -0.42466444500334       -0.03153376151861
C            0.37599271395998       -0.62677634434430       -1.13062127219198
C            0.45667510219718       -2.05263176950206       -1.68432703003304
C            0.63067903721669        0.38281029711961       -2.26069393742886
N           -0.98016319846845       -0.39071689392286       -0.62662510764952
C           -1.28919564088024        0.72692498762627        0.05233580451966
O           -0.51271266252594        1.58208227392037        0.42103460995641
C           -2.75770108790853        0.81342999986279        0.35555589446083
N           -3.36372583451663        1.86862480032496        0.97134486924316
N           -4.59940014617148        1.60843305681441        1.05836506487375
C           -4.87466619518536        0.33164677055747        0.49065370996823
C           -5.81946654744539        0.45159317336820       -0.71005616814061
C           -5.40583136541686       -0.63100162869455        1.56017634854693
O           -3.58945241081364       -0.11312474701729        0.04908817903827
N            1.24269221214428       -0.88602640130736        1.23877827516561
C            0.07509824773136       -1.63170434540940        1.70402506130858
C            2.18870947217280       -0.65584422402772        2.24802011322738
O            1.97930859709612       -1.02498540684908        3.38887843634539
C            3.40254941281270        0.02154771058786        1.78943154885454
O            4.34079007084355        0.22664667341241        2.70063156051966
H            6.05298231621482        2.92682259653392       -1.36373013720905
H            6.74235438900133        1.32739594379017       -1.74871969471883
H            5.66679551793789        2.14112851579966       -2.92779957732931
H           -0.25928421565675       -2.16848339043319       -2.49573206546689
H            1.45965972614636       -2.23020444366222       -2.06984207044810
H            0.23934970860300       -2.79227289116513       -0.91744865119337
H            1.59834528413139        0.18052491177745       -2.71596151722756
H            0.62955489978155        1.39765446272599       -1.86631675392914
H           -0.15063681443803        0.28491624212183       -3.01070445864162
H           -1.71601163766018       -1.00086411267334       -0.93887389472240
H           -5.37470778055317        1.11136630993197       -1.45176006907618
H           -5.96831731036261       -0.53638367251471       -1.13830984507603
H           -6.76917956082209        0.85847443759244       -0.37124514376848
H           -6.36803049552442       -0.26873094397072        1.91384533760517
H           -5.51705061807061       -1.61704135223669        1.11677307978364
H           -4.69805292443150       -0.67516436148626        2.38483098723491
H           -0.44672692116292       -2.08337886215686        0.87205815614862
H            0.42106018735700       -2.40762782505592        2.38642157266947
H           -0.59248784149031       -0.95679125413816        2.23844748856412
H            5.12592208343938        0.66961779586238        2.29599826439517
