46
 energy: -86.336609633091 gnorm: 0.000638804468 xtb: 6.5.1 (579679a)
C           -2.35593012753363        4.29113028801138       -1.28282247986287
O           -2.61254603372118        2.93479969262240       -0.89714709686729
C           -1.55731731249750        2.18044494876269       -0.63448382100311
O           -0.41204198550710        2.57195486025400       -0.69111121970543
C           -1.90668680740711        0.77884293144366       -0.25995795610522
N           -0.80917582915881        0.00135085104793       -0.00924871555763
C           -0.89475101915847       -1.24574232001357        0.33140350151419
C            0.46564832039705       -1.88327382354374        0.63777469177777
C            0.68308849235700       -3.33844164053085        0.23986639859932
C            0.74453661656602       -1.65780525343939        2.12942715356467
N            1.41609699444569       -1.00052356607472       -0.15287072630623
C            1.51120018464681       -1.32155928181865       -1.60154599967201
C            2.81423184440107       -0.88549350687460        0.37846208583636
O            3.40729505865388       -1.84774562077070        0.75472804602173
C            3.26597983737298        0.48095409001129        0.31017219036500
N            4.39670563941182        1.00406231519201        0.71115636786975
N            4.33092419986814        2.31676469873213        0.46296505881468
C            3.16176077431514        2.55152938548546       -0.08504676437002
C            2.61299640829698        3.83587029650621       -0.55091916534753
O            2.45201670077920        1.43077856859203       -0.20254625289283
N           -2.09722093722093       -1.86157165267570        0.50930712967271
C           -2.25154587860694       -3.24444203351806        0.96755035332812
C           -3.28359744192834       -1.17741317532447        0.25467748107986
O           -4.38174795572025       -1.69853467016241        0.37304719793215
C           -3.14706018379350        0.21941287950362       -0.15133774341620
O           -4.29056604066438        0.86042621907113       -0.38106110517843
H           -1.85928333598531        4.82193873681448       -0.46792221494954
H           -1.71884584878118        4.30982174442086       -2.16933577684741
H           -3.32323297563259        4.74148451695798       -1.49750140592833
H            0.21970694126897       -3.56623109012342       -0.71733963338161
H            0.27692080707674       -3.99983365172217        1.00091232979996
H            1.75271260924781       -3.53294014463415        0.17415721527913
H            0.81877299746157       -0.59169101359770        2.33923053858849
H            1.66498102454574       -2.15485570695785        2.42861867456956
H           -0.07754129605188       -2.07049473978227        2.71108345266608
H            0.93123063291681       -0.06555591121146       -0.11421461611274
H            2.01660622740129       -0.48789991916160       -2.08331904078956
H            2.07404343622595       -2.23959966378098       -1.73864106663699
H            0.49918704023875       -1.41935787127579       -1.98399689311500
H            2.68656256972855        3.88851046757396       -1.63881792079800
H            3.16711545325216        4.66387329745528       -0.11429643185797
H            1.55663890431022        3.89525018338834       -0.28820995013746
H           -1.97643117980092       -3.92987800657479        0.16892587968222
H           -3.29994859090554       -3.39230318295283        1.22484704763666
H           -1.63485573462683       -3.41155001565587        1.84586866256012
H           -5.03663320048793        0.24553449033958       -0.24048846031789
