43
 energy: -83.144545775673 gnorm: 0.000443208077 xtb: 6.5.1 (579679a)
C           -3.34787246437535        3.47423286316353       -2.06259212265466
O           -3.40582376345400        2.23090884820829       -1.35248403470090
C           -2.25187730737821        1.69222854750919       -0.99749468344462
O           -1.17252923347695        2.19322309554962       -1.24709288963009
C           -2.38624879467692        0.40304102153627       -0.26416439998449
N           -1.17282041721161       -0.17241737182525        0.03747204996805
C           -1.12107269101117       -1.29635138450938        0.66396734395312
C            0.22569993971549       -1.91709820958655        0.97027470332808
C            0.44914344088019       -2.00540453492711        2.48368809463878
C            0.35342557591313       -3.28469292585085        0.29210038580312
N            1.21378983366539       -0.98543218228529        0.39363100788665
C            2.50748745736092       -1.19081805047806        0.44126886883203
O            3.13489302628748       -2.13400430799905        0.83749474574621
C            3.34466081209535        0.06790583887751       -0.16912626821999
C            4.82524752749430       -0.17421856011728        0.07706069770382
N            2.94251014036123        0.17579628993208       -1.51034517314858
N            2.26972101259175        1.23697023479033       -1.67329852665978
C            2.24554843260550        1.90647928718374       -0.47595119739125
C            1.57489330648270        3.17201865104374       -0.22816372630125
O            2.87827579633628        1.24900529368339        0.43069015490653
N           -2.24044331534965       -1.96319777238009        1.06130860414423
C           -3.51141138418671       -1.48825280402428        0.82309178007903
O           -4.51387911430293       -2.08141416577106        1.17952112285632
C           -3.55107879692241       -0.21364500150176        0.10181496501141
O           -4.76841259105580        0.26562858446697       -0.14935744237730
H           -2.84305813873025        4.22628655398428       -1.45326644212841
H           -4.37718620410903        3.76885562597269       -2.25749046034457
H           -2.80249916117560        3.34208851733584       -2.99947357366071
H            1.42514504446728       -2.44249416682347        2.68723276347887
H            0.40265108200924       -1.01061255366759        2.92322519881007
H           -0.31878410324765       -2.63157249838479        2.93317210351821
H            0.21451435740981       -3.18271977234670       -0.78312089515446
H           -0.40255555428846       -3.95946243218284        0.68805940858317
H            1.33643069871496       -3.70795837769178        0.49040247840492
H            0.81449590752440       -0.12589280349711        0.02481721657509
H            4.99329311016630       -0.28163083107025        1.14622667512860
H            5.39183141168914        0.67138298266370       -0.30561110578074
H            5.11912209791731       -1.08834345974414       -0.43392210598370
H            1.83745969456962        3.57153593434818        0.74793657984663
H            1.80387702268249        3.87863794450568       -1.02669814985209
H            0.49358624720225        2.99108933794735       -0.27664726275925
H           -2.17277458047953       -2.83809963286706        1.55985151339553
H           -5.43737836070019       -0.34158165316977        0.21987699758635
