33
 energy: -57.848627210269 gnorm: 0.000509709705 xtb: 6.5.1 (579679a)
C            3.22835107412416        2.94632430488146       -0.60730909730183
O            2.09637046014256        2.08403051514179       -0.38396825268412
C            2.27554982996951        0.82788564818908       -0.20958061895114
O            3.48571213840264        0.37894553669955       -0.24696812346273
C            1.11364511589315        0.00061537520456        0.02675445280552
N           -0.08028106370908        0.67569314014785        0.02375149577858
C           -1.17422192413131        0.02291806949181        0.24067385877618
C           -2.50216834764473        0.76121876362153        0.23949737643042
C           -3.10546900013227        0.71966752326486        1.65046417722321
C           -3.45313654196872        0.12452266049210       -0.78192387896446
N           -2.27959112495426        2.14771604899650       -0.13161919338382
N           -1.16664424212204       -1.32043222752390        0.48145605106575
C           -0.04670558814116       -2.11795526818809        0.50596353633535
O           -0.13079930983928       -3.31019869892117        0.72723590525488
C            1.19394142423211       -1.36665743831967        0.24542499099127
O            2.38514524031395       -1.95339124493422        0.21922688793556
C            2.56604235691216       -3.36975716388834        0.42511786148474
H            2.81948715110184        3.94016196065578       -0.77234568938766
H            3.87202827111082        2.92863371395694        0.27255264136307
H            3.78295218169268        2.59983807209469       -1.47957057181106
H           -2.40789272561383        1.14826619661919        2.36871320528680
H           -4.02648995505099        1.30126780190165        1.66141961496029
H           -3.32752654859916       -0.30501665600794        1.94256636785497
H           -3.71650122956315       -0.88903388737973       -0.48532996995289
H           -4.36196321796619        0.72193328940565       -0.84263068136117
H           -2.98321520427788        0.09410162290489       -1.76390573965052
H           -1.60754492166843        2.55229596995350        0.50960508100903
H           -1.86421676041805        2.17600143546347       -1.05467695302190
H           -2.03590518712877       -1.80782846619734        0.65682365246368
H            3.56627197105375       -0.58992884425156       -0.10424975228739
H            3.63628556783780       -3.53849162398956        0.32468384643337
H            2.01974832694421       -3.93287721338643       -0.33224219305814
H            2.22874278319720       -3.65046891609812        1.42343271182734
