33
 energy: -58.578136444795 gnorm: 0.000524164469 xtb: 6.5.1 (579679a)
C            3.95553534890672        0.36314209019529        1.49813516931998
O            2.67416252218844       -0.06632387965011        1.08673533720092
C            2.34164598872098        0.13731514895057       -0.30832952176983
C            2.18896887844357        1.64483114876727       -0.59157218092220
O            3.33491509047333       -0.37731955296824       -1.13273256320984
C            1.01044065841953       -0.58737101723933       -0.52613029394468
N           -0.10364630335639        0.09031032373086       -0.10980028618095
C           -1.26334932156451       -0.46255841712257       -0.24994873077986
C           -2.52031683146023        0.21967409265467        0.25258894052665
C           -2.62572190951075       -0.00987093713462        1.76736074074233
C           -2.45061899436850        1.72278706492121       -0.05229258755583
N           -3.67962297455820       -0.39773378892745       -0.39211142599716
N           -1.39885432359933       -1.71390994938385       -0.78618582769793
C           -0.35624744895148       -2.48469919941929       -1.24895065635700
O           -0.59353280210789       -3.59934396919572       -1.72956854761294
C            0.98159849216255       -1.85915102693636       -1.09573114728093
O            2.02748670548435       -2.49082090385265       -1.48831875682519
H            4.72911220060228        0.08666781853274        0.77005492896413
H            3.99210200207555        1.45010851526082        1.65590472190927
H            4.17400685495040       -0.13148085331592        2.44814738498855
H            1.83832448722663        1.77692269888367       -1.61360180041858
H            3.14803223213434        2.14621164188197       -0.48070055511712
H            1.46632845137436        2.07806011298320        0.09676436085417
H           -3.50489144918100        0.49565770595993        2.16423956438674
H           -1.73907103802300        0.38378017903353        2.26437321722839
H           -2.70801222098788       -1.07592884694965        1.97941752891583
H           -3.31889296010970        2.23163965124604        0.36190856781261
H           -1.54470311340477        2.14449760061866        0.38448682499827
H           -2.42898209287394        1.88601707866110       -1.12914665329291
H           -3.79749494446807       -0.01379220553369       -1.32013305845536
H           -4.51424134960374       -0.17320114265180        0.12879350274376
H           -2.33726477710814       -2.07925100493714       -0.87563498782824
H            3.02280694207415       -1.33486717706321       -1.35541720934540
