38
 energy: -79.621662022257 gnorm: 0.000996540737 xtb: 6.5.1 (579679a)
C           -5.39235834314068        2.32755207154139        1.23268792054254
O           -4.29673215667308        1.51710902490091        0.83195372449198
C           -4.43002695250592        0.90196200671675       -0.38374035452602
O           -5.44094968207536        1.06676813110973       -1.04840149534952
C           -3.27397574924606        0.09116809589487       -0.72737213257526
N           -2.25637328664288        0.08610197067958        0.20875408575993
C           -1.19215851268929       -0.59601592268739        0.00954377572939
C           -0.08104391159124       -0.62666834188418        1.03775182615183
C           -0.32724025792412        0.44593096688397        2.10258741833614
C           -0.00906430103560       -2.02387522363819        1.67090583627698
N            1.17482524124047       -0.33957967710112        0.32596267464370
C            2.38587450310055       -0.33124059380145        0.91196068572748
O            2.61849422773712       -0.58157235714870        2.08256911917347
C            3.44467149197774        0.02400110220270       -0.07276235434576
N            3.25666079448824        0.33544602681830       -1.31974830506014
N            4.48589612330427        0.58180774935145       -1.85409621143148
C            5.34602053558049        0.40308256357657       -0.89841124623293
C            6.81766288357125        0.53619913376062       -0.97159537610980
O            4.75075197666216        0.05136376977935        0.25076433460239
N           -1.01178910699616       -1.35585117881027       -1.13148957636902
C           -1.93339211967184       -1.43813538545298       -2.14545970194612
O           -1.69412627954231       -2.13255310167815       -3.12975975267413
C           -3.20254746873010       -0.63851548897905       -1.94462960225050
O           -4.07543493601759       -0.67465372053284       -2.82923920506774
H           -5.14158879564603        2.74328849474444        2.20767964947340
H           -5.55746257175235        3.13957960846820        0.51689661276306
H           -6.30840638157220        1.73259073948668        1.30960022238802
H           -1.29314651239404        0.26801817043558        2.57341517719066
H            0.45299865317688        0.41260527746559        2.86013425236928
H           -0.33926873110962        1.43267126588868        1.64144110231226
H           -0.97566271317283       -2.27021587152115        2.10814696523509
H            0.74852028769426       -2.05120653729632        2.45142891020490
H            0.23718157676720       -2.76670482283359        0.91406918681060
H            1.12224086607104       -0.06674186054933       -0.64500783637859
H            7.17778738632454        1.16347350148231       -0.15666568274972
H            7.09840320275979        0.97413667464377       -1.92656926027611
H            7.28495257302952       -0.44466333785349       -0.87419053767971
H           -0.17019455335578       -1.89666492406177       -1.24007084915926
