42
 energy: -83.583137163666 gnorm: 0.000709399091 xtb: 6.5.1 (579679a)
C           -6.10488384333518        0.69613288714687        0.69230137850762
O           -5.11512820093240       -0.32503288271293        0.76521977610468
C           -3.96074735071217       -0.11378188143231        0.02977519541377
O           -4.02478237221903       -0.62298619526293       -1.27287545430423
C           -3.49648161330720       -1.92976304757609       -1.45529616438894
C           -2.80999755284757        0.48413766315717        0.51158473594661
N           -1.71109959810636        0.42241016382755       -0.34983692883437
C           -0.57735915624869        0.90885284749364        0.02945529293599
C            0.62367062492065        0.88790289366039       -0.90219888395400
C            0.37628224346707       -0.09937443474608       -2.05087400155513
C            0.83441732067952        2.30968764640625       -1.44818715047554
N            1.78086119072816        0.48212910073271       -0.09604670254024
C            3.02451490129317        0.24491036161041       -0.69971464229366
O            3.37344973612816        0.76444809775918       -1.77978463377445
C            3.83731898318341       -0.61051041173201        0.10751578756612
N            3.47123315936755       -1.19879405669545        1.25056252770537
N            4.53995699490504       -1.94809871528007        1.66073672563801
C            5.47779140923149       -1.79344104191356        0.78481558796171
C            6.82650833265451       -2.41279498237815        0.79815074392747
O            5.12714653861314       -0.96808011859498       -0.23017532815034
N           -0.39978379275124        1.49117859862215        1.24634072327525
C           -1.42799859326188        1.67151200224377        2.18500002559060
O           -1.13160713433974        2.25922158764858        3.25797109084768
C           -2.72492387630822        1.15659630287298        1.80323372338924
O           -3.74358130047691        1.30877514525819        2.56173281662762
H           -5.74739017053052        1.62354039369212        1.15836804411083
H           -6.38899607638425        0.90037451620620       -0.34754688882600
H           -6.98085345141399        0.33574892077533        1.23530663474585
H           -3.99881076034040       -2.65985587742185       -0.80768291188559
H           -3.66484976745686       -2.20454881100696       -2.49828458561171
H           -2.41762066676629       -1.94857672814052       -1.24911712179816
H            0.27105962334181       -1.11084538626297       -1.65860903149147
H            1.20228912255444       -0.07572472187328       -2.75967080863485
H           -0.54473309508104        0.16968231246949       -2.56763405242188
H            1.65850361873706        2.33363119170098       -2.15883293350236
H           -0.07308606800115        2.64367384756933       -1.95097565730434
H            1.05592363281370        2.99354453313113       -0.62924564773339
H            1.55562818064609       -0.21955413257117        0.60318505121132
H            6.93822762167033       -3.02225759131744        1.69169890479644
H            6.96565574210402       -3.03905714971050       -0.08346755195804
H            7.59833685452523       -1.64307692450747        0.78836928668722
H            0.50593960925645        1.85806507715223        1.49243102845039
