42
 energy: -83.006125831833 gnorm: 0.000388226060 xtb: 6.5.1 (579679a)
C           -6.03321209671734        0.49282876586448        1.17852409435768
O           -4.90640388913878        0.54635528265997        0.29230373865272
C           -3.76262608267023        0.06762727529877        0.75090466172180
O           -3.60732913038168       -0.39754493326797        1.85123297281462
C           -2.62625144542224        0.17523674930920       -0.25575919263658
N           -1.60374898052497       -0.76772002170101        0.00006288205277
C           -0.47345404034183       -0.63250352177955       -0.57067528277853
C            0.57105071690050       -1.72146147025756       -0.43974434959747
C            0.21752305131622       -2.66189437799510        0.71602556124751
C            0.62126476456639       -2.47272806907500       -1.77931148180625
N            1.86135432294024       -1.07426668843818       -0.17826489823926
C            3.01930939809427       -1.76479293844682       -0.06946366619920
O            3.15157244453489       -2.96102696306734       -0.26017109566361
C            4.16351725639192       -0.89447627635213        0.29914279032236
N            5.39460578835651       -1.24672248821164        0.50326399045662
N            6.08216259938780       -0.11268664603406        0.81486585158007
C            5.22880757389318        0.86314250911679        0.78207506108312
C            5.48035917047901        2.29819887732877        1.03519903790703
O            3.99530181797308        0.43592746760304        0.46419909504242
N           -0.12636607019236        0.46395149566690       -1.33455539094067
C           -0.86476841324900        1.62376125237020       -1.36728602856448
O           -0.37372401511683        2.68271239222963       -1.69238646448883
C           -2.29949322968439        1.46201148948372       -0.95820558944309
C           -3.06332643125565        2.74904092499540       -0.75986405878510
O           -2.95814013464713        0.39379419682121       -1.59297632807728
H           -6.83293740674263        1.04798109566762        0.69432918228837
H           -6.33034353256955       -0.54575824565421        1.33605242528217
H           -5.77543960277648        0.94867511289306        2.13624815600486
H           -0.77245291791587       -3.08368607259052        0.55087389723273
H            0.21490257143981       -2.10989369567102        1.65455365342796
H            0.94608728205800       -3.46820109289868        0.77455826521811
H           -0.37138740801257       -2.85220109752629       -2.01740464498230
H            1.31506658897441       -3.30845193591345       -1.71667737309199
H            0.94482515514818       -1.79884470109520       -2.57032428515251
H            1.85782422064891       -0.11537512624261        0.12575757802223
H            6.51582618038871        2.44251718919827        1.33428040817439
H            5.27854423917129        2.87345899294888        0.13147092389088
H            4.81571617058253        2.66028318210907        1.81876598257989
H            0.83240920395146        0.55648358979145       -1.63435191441336
H           -2.84477251666574        3.42203427065021       -1.58879093483929
H           -2.74991687654195        3.22743642088151        0.16636855928409
H           -4.13193629663200        2.55677682932175       -0.72753578893859
