46
 energy: -87.070977218695 gnorm: 0.000479173735 xtb: 6.5.1 (579679a)
C           -3.18944230848233        3.74825283117402        2.00606338972395
O           -2.58988697716590        2.54643183891615        1.55709908034820
C           -3.40059425611719        1.74765933341535        0.75439697454020
O           -4.53965933822339        2.14615105319301        0.46561854620075
C           -2.77160711693835        0.56014074086390        0.33727679899414
N           -1.51347100995322        0.28256128848592        0.80373205267199
C           -0.78129642352753       -0.63406184328651        0.27616973469156
C            0.48807801018090       -1.05164691607177        0.99779685093302
C            0.56839730760213       -2.57818498160963        1.13171565312114
C            0.49750616650287       -0.41385975800682        2.39507482573491
N            1.65482675713100       -0.52414603864705        0.25383882356457
C            2.93598300078875       -0.74928548392524        0.59454160417780
O            3.33128344069833       -1.52622930783002        1.44815356371106
C            3.85526337847421        0.07711619067288       -0.23884778339548
N            3.49985404803833        0.93246204065006       -1.14942293706698
N            4.64712838175491        1.47307645959956       -1.65114587083869
C            5.62824838529861        0.91347748891764       -1.01243495381331
C            7.07626861726399        1.16001775148696       -1.18840097509529
O            5.19378037981746        0.02338000786569       -0.10747344862828
N           -1.16624356695375       -1.25504244543756       -0.94366095291098
C           -0.18717107355720       -1.72930478299961       -1.92316033815070
C           -2.40476393246622       -1.01681825306156       -1.46066147859556
O           -2.64080387157951       -1.16244718113366       -2.66375116738637
C           -3.45041571464918       -0.53688989082850       -0.45352043505512
C           -4.72491266034631       -0.12728422620259       -1.19274789883577
O           -3.72950763080225       -1.67747793671836        0.39063490656699
H           -3.47909478018054        4.38614145235857        1.16238311795676
H           -2.45031870534140        4.26919169836552        2.61607426367153
H           -4.08097608283600        3.54418712401793        2.61063403413279
H           -0.37958231013001       -2.94581835745807        1.52359063638232
H            0.75835715155415       -3.05494090163614        0.17291622825821
H            1.36305758755019       -2.86076623739282        1.81969239417369
H            1.41024107006702       -0.68320597022893        2.92364637515009
H            0.43768084730549        0.67050826121657        2.31119740836018
H           -0.36082884245183       -0.76806819364780        2.96345902815745
H            1.48026880242714        0.23978275669771       -0.38469206791221
H            7.51561403270497        1.49005872887916       -0.24745757536967
H            7.22699008053518        1.92235877034406       -1.94854027265194
H            7.57751453890609        0.24054643932434       -1.49003018436833
H            0.81765659723797       -1.69716521931905       -1.51670202097933
H           -0.23149587733358       -1.09903645414987       -2.81534699630463
H           -0.42970308560708       -2.75419059833414       -2.20923019016873
H           -4.53620742555742        0.74423912172312       -1.81731132659343
H           -5.51351215470277        0.10986056770331       -0.48265529022199
H           -5.05408903653437       -0.95315922108907       -1.82376826019104
H           -4.35841240039973       -1.42857474685779        1.07629813331579
