33
 energy: -57.874036351455 gnorm: 0.000773455093 xtb: 6.5.1 (579679a)
C           -1.77281988450075        1.75965379571399        1.00762569043912
N           -1.77716032715418        1.06071609152388       -0.29986251018694
C           -1.79465006712169       -0.44343772568857       -0.24331126013189
C           -2.07913035518480       -0.92567626561533       -1.66997334411733
C           -2.86257939419241       -0.93217321578694        0.72958881176563
C           -0.38822185881495       -0.84086129410457        0.14150326682576
N            0.55243485986642        0.02079359501111       -0.03994329448717
C            1.85920488176041       -0.31325612292631        0.23986152771767
C            2.86949952528654        0.75806127534930       -0.00675130146266
O            4.05624975017965        0.64350801760618        0.17835283896991
O            2.29993776990627        1.87315308196608       -0.46642632632758
C            3.17956720561531        2.96696845434156       -0.75480629911506
C            2.16647537826599       -1.56347073659531        0.70456304417688
O            3.40093243291727       -1.96542361689614        0.99792743959927
C            1.10843562568912       -2.55679942501395        0.90641606757391
O            1.31710888676515       -3.68450716040143        1.31331152893624
N           -0.15731586876662       -2.10292128293412        0.59125313691133
H           -0.96178632357516        1.35870030344527        1.61027193832448
H           -1.61230427810187        2.81656306790902        0.80782285954301
H           -2.73168415230358        1.61239111156772        1.49487756553370
H           -0.90498813266842        1.30938591299195       -0.78265679273260
H           -2.56403298457304        1.39022176398845       -0.85027387759102
H           -1.34150013399812       -0.51674268164164       -2.35908464443336
H           -3.07461692368787       -0.61098418214997       -1.97773745013531
H           -2.02710898016280       -2.01258599618506       -1.69920042037674
H           -3.80884483519875       -0.43725502368048        0.51884940857012
H           -3.00205986054119       -2.00396579421017        0.59865372326382
H           -2.57499095723620       -0.74023037952709        1.76145922609799
H            3.92122513457025        2.66501316719378       -1.49884060448313
H            2.55629305269156        3.76829202551469       -1.14496623184265
H            3.68701758654164        3.28933952142699        0.15780825375441
H            3.37794690327952       -2.88749719144861        1.31412261968068
H           -0.91653467555355       -2.75497309074356        0.71573240973959
