43
 energy: -83.189184570867 gnorm: 0.000289997263 xtb: 6.5.1 (579679a)
C           -1.76040885480838        3.96734328592011       -0.17859088740812
O           -1.81305114248099        2.53645623200892       -0.23592542843505
C           -2.98270839635762        1.99831671134090       -0.54840370594677
O           -3.97958790122837        2.65467760942522       -0.78871401354038
C           -2.97218402848702        0.51785007569462       -0.56864452251597
N           -1.77869402417532       -0.10334416435012       -0.29141550345284
C           -1.72946528900077       -1.39147592516778       -0.27943132229449
C           -0.42357568480928       -2.08341220951840        0.05041881597805
C           -0.54295769424894       -2.80044470787166        1.40211582783915
C           -0.01126788106151       -3.04856080337595       -1.06749773379601
N            0.57169924854427       -1.00872817257608        0.15035688155213
C            1.84954247942685       -1.20769431314400        0.45029738787625
O            2.40934326000078       -2.25868958201017        0.70330479245806
C            2.65558107570448        0.06004668712172        0.45161952991164
O            2.20073446286895        1.26539872337136        0.15188828656297
C            3.25621717331819        2.09407722815277        0.25003855752832
C            3.11646159433278        3.53445735233788       -0.02017566247194
N            4.32953560712652        1.44291427908619        0.59674379078968
N            3.93656431535079        0.16433898328003        0.71843297194700
C            4.88072193233049       -0.86760935017746        1.09600576812496
N           -2.82067697603107       -2.16376026064015       -0.53125745044455
C           -4.07845232530676       -1.66275547851763       -0.83524181745814
O           -5.00974327969832       -2.40983317510373       -1.06041836642442
C           -4.11449792053861       -0.19413041486979       -0.84077019266256
O           -5.29135693527918        0.36169412493563       -1.11550879872749
H           -0.74854236768911        4.22294408584560        0.12629317695547
H           -1.98037305868633        4.38799527035527       -1.16218991280663
H           -2.48512639448475        4.33844252052011        0.54967016428555
H           -1.32721970841043       -3.55282439930669        1.34612546823496
H            0.39815475834929       -3.28853187576787        1.64771783141958
H           -0.79067896207978       -2.08256364322397        2.18233459111491
H            0.94660082495415       -3.50448953505123       -0.82469705206282
H            0.07612957241853       -2.51085610056835       -2.01009771615467
H           -0.75633106174864       -3.83472271130895       -1.17059771907314
H            0.22078735111283       -0.07035989777801       -0.02179079027327
H            2.38724508270113        3.96691983701346        0.66590102613525
H            2.74685365854989        3.68340176986566       -1.03532997502057
H            4.07782596771748        4.02832611884389        0.10108480810555
H            4.92321417911541       -1.60853280684510        0.29882766786795
H            4.52751234728061       -1.34592935909892        2.00847333365265
H            5.84969037582301       -0.40045650191542        1.24851104857896
H           -2.74401482600558       -3.17028795406266       -0.51470856091790
H           -5.21950155440393        1.34439544712987       -1.09475459502920
