16
 energy: -34.296686615767 gnorm: 0.000651336727 xtb: 6.5.1 (579679a)
C            3.23392973749886        0.70129064412909       -0.25596234956478
O            1.82939675217965        0.49092365043315       -0.06599292773787
C            1.45315634641656       -0.72042364791222        0.31819856528754
O            2.20358316727362       -1.64524166107682        0.51581692456260
C           -0.01714836203144       -0.81466381158233        0.48287968011942
N           -0.69320746667184       -1.85410824793909        0.87219611158632
N           -2.00084522157085       -1.48989773858826        0.88188862980745
C           -2.04652085354635       -0.24862918109596        0.49660826014573
C           -3.24290108687890        0.60413906644727        0.32994214224112
O           -0.82699899061659        0.23371614637036        0.23069446358451
H            3.60404560936824        0.04526198079916       -1.04631434230916
H            3.77040075185086        0.49384886864677        0.67222414569806
H            3.35159037758232        1.74431621367367       -0.53981505507598
H           -3.46755624338883        0.72264065214664       -0.73109376124088
H           -4.09507966408805        0.14492013526384        0.82530230026589
H           -3.05584585337723        1.59190593028470        0.74793321263005
