38
 energy: -79.627269409181 gnorm: 0.000657605284 xtb: 6.5.1 (579679a)
C           -6.53344956777532       -0.92603331529988        0.14598993635037
O           -5.28286359358500       -0.75090057748709        0.79437949950387
C           -4.26304414720279       -0.32132677100054        0.00645260702807
O           -4.44684298792355       -0.11350853553388       -1.18817136378414
C           -2.99587790565012       -0.13691932232818        0.69605747547069
N           -1.99332337431300        0.32065196745386       -0.14243357285699
C           -0.81912510179440        0.54124124314771        0.31258533735107
C            0.27233963893250        1.09548716404132       -0.57878347748135
C           -0.07729731745547        0.86900620589428       -2.05206358523051
C            0.45633550152460        2.58804725595660       -0.28613738590937
N            1.54349058035163        0.43088551789839       -0.25956099807696
C            1.69293493425022       -0.90764213822468       -0.30868046859954
O            0.79569072313586       -1.70983796620289       -0.50801853288698
C            3.09539967798893       -1.33950808792446       -0.06543078992020
N            3.54849249220001       -2.55221283896504        0.00844473237118
N            4.89139974946841       -2.45783188637010        0.23024604372562
C            5.17378778775934       -1.19397466552183        0.27648540900498
C            6.49549164694858       -0.56573732666863        0.48865926168945
O            4.08219206284070       -0.43129109692758        0.09856576368310
N           -0.49795444475622        0.35537417494043        1.64203201689893
C           -1.38573169197508       -0.10069155192883        2.58034857575450
O           -1.02383033383283       -0.24276056690207        3.74687692968713
C           -2.78344795444460       -0.39047302689583        2.07642319010402
O           -3.62808781520080       -0.81651501486206        2.88672970683268
H           -6.46549442370630       -1.69721573465173       -0.62818526359042
H           -7.24962449228765       -1.23207905694696        0.90789939344426
H           -6.86436693280887        0.00829384871684       -0.31790928195086
H           -0.20085805930200       -0.19524325687481       -2.25067733255202
H           -1.01183691717327        1.37981869062088       -2.28100391465728
H            0.71384862078639        1.26329297613985       -2.68595626628271
H            0.71548525132511        2.73686878120477        0.76065670906406
H            1.25014323516402        2.99818249175922       -0.90712836460308
H           -0.46931946538476        3.12098131225048       -0.49948047308950
H            2.36183740228200        1.00641808491280       -0.17654960065565
H            6.70896550133747        0.13026787649814       -0.32150409696743
H            7.26476080886362       -1.33294471205151        0.52596085495095
H            6.49635503827982       -0.00398108380824        1.42248720795177
H            0.43342687312604        0.57380894194243        1.95346411823430
