42
 energy: -82.992818660210 gnorm: 0.000420899362 xtb: 6.5.1 (579679a)
C           -5.35073990490303        1.24333466658369        2.11573619577117
O           -4.75455593917951        0.70950690598839        0.93357928914765
C           -3.42731777207012        0.55810924659716        0.95892797567862
O           -2.77297137818129        0.85599717102576        1.94573609284031
C           -2.87442486873185        0.05858947752720       -0.30816739981934
C           -3.60076238031113        0.19832401713120       -1.52447793788040
O           -4.76785315293996        0.57477526425369       -1.63360861965657
C           -2.83160182661146       -0.11647314581289       -2.78242522606686
O           -3.28295635694600       -0.08729675310000       -3.90802754887772
N           -1.49145921783640       -0.42167921495088       -2.59429581630087
C           -0.85625611798113       -0.59288062125336       -1.41277842449613
C            0.60937122988780       -1.01062478364582       -1.49304203523056
C            0.71170913722260       -2.54081100509141       -1.38725197391385
C            1.25493404060573       -0.55143912595146       -2.81106354166635
N            1.32118297874696       -0.32203352880510       -0.41362486524275
C            2.60063546009762       -0.61707235307747       -0.05506186910871
O            3.22516326397338       -1.60222963362342       -0.38967997476208
C            3.12887751239349        0.43453287252415        0.84691734689055
N            2.50645943765220        1.51987794230884        1.19907322205802
N            3.35215416117539        2.21117047869815        2.01048432012595
C            4.43927001574476        1.50452231329695        2.10076915892774
C            5.66578187771181        1.82436282725055        2.86292772089439
O            4.35804337320216        0.37209130865244        1.38741341056854
N           -1.54760520202272       -0.41296902125349       -0.30620877478415
C           -0.98637116456048       -0.81382446522805        0.99251403942226
H           -5.14507191634933        0.59300867324163        2.96947093085082
H           -4.95729853827002        2.24184048996340        2.32296802170187
H           -6.42229364924040        1.29169247376218        1.93018125955694
H           -0.98370846927024       -0.58881566664898       -3.44915453913858
H            0.52437358621244       -2.88873877566547       -0.37427673151342
H            1.70549713091571       -2.86643672641066       -1.68680458170056
H           -0.02108339206932       -2.98848875151851       -2.05683204581342
H            0.88437393821340       -1.12943245795870       -3.65514317099430
H            1.07409351705411        0.50813825646405       -2.98071847566985
H            2.32873393808393       -0.71642026876073       -2.73770083311829
H            1.02040714328576        0.62415439575604       -0.22102049239766
H            5.53576221734593        2.76739057821939        3.38819447575892
H            5.87546906742510        1.03084768199256        3.57999056014270
H            6.51566029526104        1.89802926280302        2.18411475688832
H           -0.58527870268167        0.05634541450773        1.50832481290917
H           -1.77662465132520       -1.26464197839143        1.58761687695885
H           -0.20172172073202       -1.54433444139819        0.84297241105726
