42
 energy: -83.011570539143 gnorm: 0.000479041183 xtb: 6.5.1 (579679a)
C           -4.79339548206668        2.68002991496751        2.03403467948138
O           -3.80476827337821        1.81370730773636        1.47118352653106
C           -4.13124290719329        1.20134588595542        0.33081109765315
O           -5.19799039019555        1.35162025850304       -0.21835028498368
C           -3.03342824490267        0.32237656421469       -0.16547490387534
N           -1.90069246675525        0.27462575312877        0.59793483987081
C           -0.88762643246218       -0.46015674115078        0.27108323844953
C            0.28130303994575       -0.44202329594976        1.24723009918917
C            0.24512783100691       -1.72831895111258        2.08738311362515
C            0.15562331190707        0.78166213514963        2.16699609477250
N            1.53258465596486       -0.31960245827264        0.49058260523163
C            2.75383296733974       -0.35790887541754        1.07208065303607
O            2.97736137714239       -0.63964021411056        2.23632078915090
C            3.84485285923758       -0.03213291692670        0.12085458556228
N            5.11638341035976        0.02711469425320        0.37010084151125
N            5.72955975946758        0.38587581611807       -0.79047045004283
C            4.79524617265512        0.52589129840407       -1.68023592475576
C            4.94844577454866        0.91396624913151       -3.10095071056562
O            3.57933667623338        0.27598060072790       -1.16829499576143
N           -0.90062615708463       -1.25051589545153       -0.85086895811976
C            0.18299331700339       -2.13250050943838       -1.29055557252162
C           -1.98572732817674       -1.25257873228127       -1.70896134395606
O           -2.00745876145893       -1.93172965325474       -2.73045423753881
C           -3.10687705220614       -0.41188395938709       -1.31672513681654
O           -4.15894211357662       -0.42916793151176       -2.14080187490508
H           -5.10448640110601        3.42566124372596        1.29806300393998
H           -5.66360407510926        2.09994618952821        2.35113911828672
H           -4.33185048067323        3.16539110999449        2.89170119593481
H           -0.75362059989032       -1.84430788690771        2.50633671675097
H            0.96329450305519       -1.66639000880152        2.90255836196164
H            0.47479219805762       -2.60264025995079        1.48329465281916
H            0.99928715187701        0.80883820815795        2.85424015843513
H           -0.76935222174792        0.72165301487585        2.73732835336676
H            0.14577410535553        1.69388225381978        1.57307242352180
H            1.47272496341837        0.07292672102185       -0.43463465682707
H            3.97742326668083        0.92080240448270       -3.58874564401430
H            5.39364483885797        1.90671666292902       -3.16914420563485
H            5.60644500826820        0.21078368414498       -3.61113286643030
H            0.66764138506137       -1.68647029791051       -2.15852472341833
H           -0.25773929996158       -3.08627610140959       -1.58090850475592
H            0.90688327185122       -2.28423517251551       -0.50020755545258
H           -3.96113315734679       -1.02231510920992       -2.88889059870884
