42
 energy: -82.977553059193 gnorm: 0.000485064079 xtb: 6.5.1 (579679a)
C            6.75946152761153       -0.41514830280267        2.01224937622763
O            5.63989019598186        0.38526451465835        1.65799894257661
C            4.68728211584630       -0.22670843407415        0.91279269205070
O            4.80831764578984       -1.40109302775313        0.58517625173699
C            3.55873622688953        0.62093597187187        0.55350212357348
N            2.62356947240845       -0.03726630159749       -0.22201652135723
C            1.57689726115633        0.56602873589111       -0.64621564330079
C            0.59295256637509       -0.17869972872904       -1.53140143711465
C            0.48509779762731        0.47194622654608       -2.91437489473987
C            1.04107430874280       -1.63471471388797       -1.66810621645879
N           -0.73948720176491       -0.21796465374599       -0.87926633629270
C           -1.62862569584327        0.77634355637019       -0.84798722926756
O           -1.49941698049536        1.91060499874129       -1.26377649482905
C           -2.91036058819155        0.33603804456918       -0.18967544566495
N           -3.17867121492986       -0.82003499778628        0.34272172658297
N           -4.44918258771159       -0.71494075680875        0.77609535770130
C           -5.09786312445594       -1.84602434212558        1.40361772201071
C           -4.92079241499047        0.48336091372106        0.49843174691351
C           -6.25691332599593        1.03786708897177        0.76987684975942
O           -3.96870321526008        1.16251038365110       -0.10475341973143
N            1.32984514124165        1.89039986130167       -0.35361875877450
C            2.15336161256466        2.65839311031298        0.43006768855594
O            1.85295705503039        3.82430397228676        0.67255634153440
C            3.40825188314064        1.97973860571937        0.93768252491497
O            4.19637130028338        2.63904258256145        1.63797107426133
H            6.44835529548448       -1.26488615551553        2.62769651177583
H            7.44081365300375        0.21995147140157        2.57747587386692
H            7.26257997324504       -0.79456325597023        1.11735395321310
H            1.43978433500442        0.36655102032563       -3.42840525026353
H            0.24341344085365        1.52968784131125       -2.83969091046496
H           -0.28717782515971       -0.02599078050192       -3.49733214833135
H            2.02528622397812       -1.66921189886949       -2.13371916139619
H            1.10834516073704       -2.10090712322086       -0.68591988414407
H            0.33425042520877       -2.18812401342892       -2.28261014863191
H           -1.02117076000834       -1.10580504745192       -0.49795050068531
H           -5.71550511941797       -2.35194651108279        0.66239417040404
H           -5.71915593023034       -1.48635815780293        2.22024092105049
H           -4.32505810611119       -2.51714829632560        1.76991979980335
H           -6.29737290310842        2.07167132210797        0.43256576970472
H           -6.47437398562524        0.98636241250684        1.83736351090974
H           -7.01307346100358        0.45028788452651        0.24762102599730
H            0.48600782209765        2.32597998012703       -0.69654855368013
