33
 energy: -57.858547188073 gnorm: 0.000672881728 xtb: 6.5.1 (579679a)
C            4.91657947336659       -0.07007805817770       -0.85581422769315
O            3.70375636760315       -0.38749018040100       -0.14018950202604
C            2.61055298713116        0.25486494580402       -0.52674866998186
O            2.59927345680080        1.09700535924296       -1.38681826405643
C            1.40866532733945       -0.14858423989199        0.28628420929719
C            1.52332404991869       -0.52638093776533        1.59674975789236
O            2.65199245434346       -0.71680036254281        2.25729180085045
C            0.32034705178260       -0.70752343404513        2.42186482059373
O            0.28508077284609       -1.02156854356592        3.58444928658138
N           -0.85200999508245       -0.44906611386294        1.71556237942675
C           -0.97239424422395       -0.15290163732353        0.41349366748833
C           -2.38916368450367        0.06976977293872       -0.11604026129157
C           -2.54760506906744        1.56492184542542       -0.43597771602970
C           -3.46314262461388       -0.33784089692524        0.90414511851553
N           -2.57590690435682       -0.71716046137619       -1.32833852146765
N            0.13743235333376       -0.00933611909272       -0.29498995330904
C            0.09616334898365        0.23955837586523       -1.74499322151385
H            4.80668108604809       -0.37284721455424       -1.89801736385317
H            5.71099587600634       -0.63222250916078       -0.37217484643509
H            5.10671401311547        1.00268169473912       -0.79905402048502
H            3.45050667131052       -0.64249472463651        1.70224887606028
H           -1.68867722627985       -0.55091710932026        2.27560356048715
H           -3.56651931317648        1.74392154264750       -0.77457937286598
H           -2.36306893950524        2.15760122334421        0.45863782854438
H           -1.86076074553063        1.87882771492875       -1.21804542934973
H           -3.33857159345934       -1.37571656525384        1.20730643806087
H           -3.45490922229900        0.31131385480207        1.77863363426342
H           -4.43473374231995       -0.24160616200404        0.42220409357108
H           -2.63712371028125       -1.69742473525092       -1.09149539325161
H           -3.44531040204075       -0.44185264205648       -1.76408905398328
H            0.86068194783203       -0.36656825372743       -2.22388660955387
H           -0.88269167428740       -0.04906802149767       -2.12045831254091
H            0.28384085326534        1.29498259269507       -1.93276373194398
