47
 energy: -79.535673528104 gnorm: 0.000420360915 xtb: 6.5.1 (579679a)
C           -1.57634499544129       -4.13887776960579        2.81967617910827
O           -0.74002347964684       -3.24630068123396        2.06199769429576
C           -1.22174226917655       -2.18555679621469        1.40099206508674
C           -0.33913415691537       -1.37258710219185        0.72476522212242
C            1.09495713100865       -1.59041851764687        0.66188571131879
O            1.69998861136379       -2.60536733571222        1.21432152777128
N            1.82677336733553       -0.72837252291915        0.01297435433324
C            3.28136999492270       -0.86990878651479       -0.12857208283993
C            3.87204544884101        0.40388828116599       -0.67606070322222
C            4.08977102620315        0.53956023846898       -2.04557502644373
C            4.64403092105965        1.70386944012543       -2.55756835566366
C            4.96828828580448        2.71947193248003       -1.67532129921005
F            5.50755046989085        3.84381247691298       -2.16049308702690
C            4.75625158482261        2.61973250645060       -0.31114113056663
C            4.20186846804631        1.44890329142703        0.18522827368479
N           -0.75873762636832       -0.26575997643216        0.04865728727711
C           -2.02026167414055        0.04748398057971       -0.00247154277969
C           -2.35235378461135        1.34083300527255       -0.73439400241723
C           -1.11290748861693        1.82047307137621       -1.50658718090940
C           -2.75226898902639        2.40698424827882        0.29641368858347
N           -3.45303246749637        1.12641051924689       -1.66788498803008
N           -2.95850300790026       -0.71920267727361        0.62433121037272
C           -4.40020004749047       -0.43529951099327        0.61098379473474
C           -2.64299824216210       -1.85029452426944        1.37229664390882
O           -3.52735376423119       -2.47742810099425        1.93662720520186
H           -2.29231812442177       -4.63798748952764        2.16460712252059
H           -0.89482741491693       -4.86754063590439        3.25660142816964
H           -2.10010230916037       -3.59597157491319        3.60768176808535
H            1.08320028901253       -3.20598767680273        1.68431023235171
H            1.34705717538534        0.04983198420068       -0.42726077703071
H            3.47123927424560       -1.71530005312899       -0.79724031148534
H            3.68631377580642       -1.11019967024333        0.85879285935561
H            3.82618894808136       -0.26940672228199       -2.71608834618428
H            4.81985852367915        1.82224695999709       -3.61889483695360
H            5.01832756159541        3.43940241921300        0.34526429580574
H            4.02527843426487        1.34713737315935        1.24926514055172
H           -1.36511580080153        2.71766707711542       -2.06942169132320
H           -0.78137497234171        1.04931521824012       -2.19943837650075
H           -0.29953239179696        2.04788077070099       -0.81979073051907
H           -2.92523010681678        3.35364610800700       -0.21342830371455
H           -1.95076633382844        2.53908390905383        1.02199047258758
H           -3.66117099063809        2.12248305776338        0.82264834508547
H           -3.14675231981104        0.50663740380221       -2.40532531467654
H           -3.69752054528549        2.01275676396070       -2.08913703819167
H           -4.62863266432537        0.29238834068561       -0.16109733569311
H           -4.92637442513121       -1.36842950170711        0.40748014708057
H           -4.69477889887058       -0.06570175117519        1.59340279198656
