42
 energy: -82.873630266367 gnorm: 0.000983519112 xtb: 6.5.1 (579679a)
C           -6.52755597360333        1.86054316170115        0.06480319963273
O           -5.21144691326427        1.73211848148899       -0.49861472172981
C           -4.36619081102644        0.92855523811755        0.15557902036172
O           -4.66279453551100        0.33003510047310        1.15870142625065
C           -3.01800657198911        0.84995648151011       -0.49063994907860
N           -2.16660915154138        0.02239343814574        0.12326066818948
C           -0.91883182252303       -0.08924616796752       -0.35725170136824
C           -0.02520647352146       -1.05152789318060        0.39095147841388
C           -0.56750578632125       -2.47987117674304        0.15048513310374
C           -0.04260989381359       -0.74139570676312        1.90015244581421
N            1.30260512430621       -0.91924752560466       -0.12467921874768
C            2.42570177831182       -1.73044607974124        0.27936279170781
C            2.83686702516695       -2.49541177337393       -1.07741244020121
O            2.26949302703455       -2.54551905282295        1.24607412177285
C            3.60738224272947       -0.74746225936625        0.42199791458384
N            4.52846349912554       -0.74944945373675        1.32200090786657
N            5.34429619818443        0.31159424165508        1.02494482344422
C            4.86918576302460        0.87344505096139       -0.03791311515483
C            5.38653566657957        2.06212662368700       -0.74953291273322
O            3.75962277404242        0.24375759787376       -0.47660620718768
N           -0.42582533072128        0.53894592870696       -1.39237596913919
C           -1.21734064063731        1.39892522835871       -2.11912924235960
O           -0.81496792884850        1.98151366536924       -3.11419748750001
C           -2.61074594329381        1.56700520235573       -1.61754944817739
O           -3.36675259425846        2.38549331250740       -2.32108463429384
H           -6.46982806976241        2.40311793107985        1.01028115369118
H           -7.12168031971622        2.41548178436571       -0.65596613253528
H           -6.95509606897871        0.87070773619169        0.23452478564465
H           -1.59735313204981       -2.52218770407879        0.49917439998232
H           -0.53588445602808       -2.70830552644792       -0.91261200751127
H            0.03236534235813       -3.20344138313127        0.69771388528847
H            0.37557382101402        0.24822999510192        2.07433852433279
H           -1.07390000030643       -0.76472636258363        2.24659927094987
H            0.53952067128237       -1.48124096844132        2.44572391137192
H            1.41095280194097       -0.31557607400279       -0.93547147327289
H            3.74579722183935       -3.04618885728318       -0.85651004240979
H            2.99398039505458       -1.78019312201744       -1.87648378447731
H            2.02381994100183       -3.17447071478994       -1.31067190561354
H            6.33137935310275        2.36928583839767       -0.30807497018726
H            4.66973141840687        2.88024832047096       -0.67790998077075
H            5.52983258479687        1.83184271745120       -1.80435106809910
H           -4.28697623159836        2.44058372610076       -2.00250144983724
