46
 energy: -86.369803401959 gnorm: 0.000423162484 xtb: 6.5.1 (579679a)
C           -5.68579963891099        2.36221428711640       -1.99238846537380
O           -4.59936129625678        1.60125810684445       -1.45086570320468
C           -4.69384208731338        1.25976316658785       -0.17462268888047
O           -5.63965061745709        1.56541676509933        0.53038629501391
C           -3.54527607815072        0.47031956708540        0.32655053744630
N           -2.53459976313761        0.19191237823930       -0.54896447045950
C           -1.50808540501080       -0.49689176445630       -0.17098535768230
C           -0.46723080832486       -0.75008742285841       -1.25274503650471
C           -0.62416588338423       -2.15958156979944       -1.83164776114755
C           -0.63441512074105        0.28670265546126       -2.37279284247597
N            0.89438708016416       -0.61263531530279       -0.71557634150050
C            1.26670321769489        0.47003732890548       -0.01887805551025
O            0.54709606471682        1.37650886674664        0.34418467618036
C            2.72737236280650        0.45163573482883        0.33462406390776
N            3.39214956461330        1.35647614420472        0.98427574802193
N            4.64933041499222        0.87970927457204        1.05405116411205
C            5.67683780013969        1.64320557128104        1.73408224587200
C            4.72231246338926       -0.29227694637509        0.46005654676699
C            5.88138319806906       -1.18113720123229        0.28412677166257
O            3.52225650251191       -0.58353029014590       -0.00351382530376
N           -1.40084414441363       -1.00208811406332        1.09767562928435
C           -0.28867894876368       -1.82675336920299        1.56539943240863
C           -2.34391969036420       -0.72899928280170        2.09134457225908
O           -2.18558682397789       -1.14183882036348        3.22980132025932
C           -3.49004279238868        0.05287920397454        1.63233833399580
O           -4.42823130669635        0.30896683601258        2.54504636838914
H           -6.60856112262874        1.77991829178367       -1.94260755069135
H           -5.42743799026773        2.57790186072529       -3.02683160139394
H           -5.81070177425023        3.28904915710857       -1.42799091197550
H           -1.63129181550022       -2.27293078832242       -2.23064973308364
H           -0.45820404642027       -2.92445995452751       -1.07691323469548
H            0.09234708170311       -2.30429844669566       -2.63782070054720
H           -0.58461999807212        1.29447193439486       -1.96353452108694
H            0.15900662815940        0.15540911311920       -3.10501264212947
H           -1.59933509740811        0.14936136313559       -2.85732482876154
H            1.59253711113071       -1.26042429830519       -1.03464112947964
H            5.71264703016396        1.33272323222705        2.77797428646001
H            5.41650513316342        2.69689561050245        1.66422819583218
H            6.63151436543975        1.44850870186408        1.25332933849165
H            5.53696297072702       -2.16832435195347       -0.01732884053136
H            6.53587623847661       -0.78142342252639       -0.49357101662082
H            6.45375065730301       -1.24558691660678        1.20880961003698
H            0.42832242056285       -1.20180436774622        2.09756941883411
H           -0.68729041166007       -2.57507892523978        2.25098215243011
H            0.20087100706880       -2.31927532140806        0.73620133647397
H           -5.16299765149785        0.82818173810825        2.14416821489727
