42
 energy: -83.630145627158 gnorm: 0.000241704125 xtb: 6.5.1 (579679a)
C           -5.73055723493134        1.88286491873302       -1.28067780142312
O           -4.69270700759996        1.31577510591432       -0.51114615418815
C           -3.57166159568360        0.87972570717189       -1.25806680940428
O           -3.61155327038477        1.03918559603540       -2.49910027349069
C           -2.52480878360620        0.33491362031871       -0.51241415222469
N           -1.44393399469630       -0.11528669341021       -1.27162513008833
C           -0.33311988431612       -0.39983816728092       -0.67149146476198
C            0.79732820750656       -0.98602977975616       -1.51994532426419
C            0.80396056499181       -0.34591427562754       -2.91376958855228
C            0.60511950713492       -2.50800715783741       -1.62989826323157
N            2.05107354496563       -0.69529555985529       -0.82052527696698
C            3.27109457453027       -1.02568157979071       -1.24981752352271
O            3.52802074864522       -1.61256887263929       -2.30477929499598
C            4.35876531266418       -0.60193744961959       -0.33407066964647
N            5.64118944840025       -0.79175618261409       -0.49253325277047
N            6.25934134717790       -0.22527861447164        0.58710449943330
C            5.32538357992468        0.27350710865762        1.33388608513143
C            5.48829305096707        0.99620276203354        2.61599269954158
O            4.10098228146713        0.07310292847135        0.81490597224362
N           -0.01145479886155       -0.12811195778257        0.62814229050379
C           -0.98132236977858        0.25979915461137        1.44803945234226
O           -0.76326388126817        0.76166571597305        2.57320164106428
C           -2.46325118840168        0.05811402208796        0.97389755932162
C           -3.38161223632950        0.91299129279747        1.85552556052489
O           -2.76097000727275       -1.34582088513670        1.24145466866727
H           -6.53455032753742        2.15710481688168       -0.59517152310675
H           -5.39235247212880        2.78177356985591       -1.81377974216461
H           -6.11841416397960        1.16980551254005       -2.02005015948401
H           -0.19493414415989       -0.43460319257479       -3.34290517514659
H            1.52021972465428       -0.83664039749341       -3.57129945167646
H            1.05801598988646        0.71153450123614       -2.83816140137396
H            1.38541331139922       -2.95845455175908       -2.24264164504674
H           -0.36332911275989       -2.71098204631630       -2.08594790799623
H            0.62888240262090       -2.95984470167687       -0.63824119090832
H            1.92385440756829       -0.27093312982241        0.10079261086293
H            5.08061024609207        2.00380918050437        2.53467128963760
H            6.54398748301116        1.05371267125665        2.86708355465659
H            4.95434394659851        0.47729240156339        3.41202062286238
H           -4.42193076137060        0.61835816012002        1.73586733745427
H           -3.10930779719373        0.77029294289091        2.90293917611122
H           -3.27771170813164        1.96884936201652        1.60798566244163
H           -3.64313393983926       -1.54739985620400        0.91367749363982
