42
 energy: -82.977039785259 gnorm: 0.000491654543 xtb: 6.5.1 (579679a)
C           -5.37329593243218        3.06150499149833       -0.01976182828239
O           -4.21386283188237        2.23011418925038        0.04740683555487
C           -4.12158400465253        1.26672476017004       -0.88870932703739
O           -4.96230196674815        1.10607617572107       -1.75052904464539
C           -2.91985022759281        0.46205254462266       -0.73041389554093
C           -2.54287277092823       -0.59452026265791       -1.54036734599266
O           -2.91157858111177       -1.22196498673915       -2.48988724759024
C           -1.21507869520187       -2.47931344512944       -0.45909640725389
C           -2.40337215755736       -2.82217526588702        0.36097247721835
O           -0.37305075289932       -3.21717591151162       -0.86333967574570
N           -1.13498069819686       -1.05901974685255       -0.85604719606393
C           -1.01361222302892       -0.07465893249504        0.24582711937737
C            0.18314736192435       -0.05460611250936        1.15371938601477
C            0.19628303524273       -1.29005122255092        2.06548916670543
C            0.13470034723289        1.23389736433266        1.98534960384657
N            1.38148866980153       -0.05373035018551        0.30329470927609
C            2.63823687838657       -0.03340155151880        0.80847396706387
O            2.93210684321653       -0.13289381202597        1.98443119855944
C            3.63711490089360        0.10992003331396       -0.28015581043493
N            3.38001275159405        0.21070177991817       -1.55019281819587
N            4.57847946804329        0.33288300328660       -2.18468630404884
C            5.49162966128511        0.30071692079580       -1.26068483555959
C            6.95714449414671        0.40458170733502       -1.43378365000569
O            4.95903255032978        0.16081080293279       -0.03816302072200
N           -1.99883743467063        0.72226264229477        0.27846147648373
H           -5.41856248801217        3.57432585332008       -0.98445494595949
H           -5.28292574268962        3.78663541882344        0.78713096631473
H           -6.27780611016767        2.46162883971047        0.11244246270097
H           -2.19859623012430       -3.71909632544832        0.94071700251331
H           -3.22536516870689       -3.03440225371521       -0.32658894487009
H           -2.69831783792123       -2.00135407149724        1.00902275307568
H           -0.38875721726140       -0.97134258683129       -1.54245704748832
H            0.36100874891203       -2.19116244642177        1.47875406284877
H            0.99157616282257       -1.20058208995555        2.80294805534586
H           -0.75729261697078       -1.36650549511202        2.58456000960252
H            0.15714092866776        2.10211198585005        1.32921221650443
H           -0.78469876365633        1.25333918292398        2.56791832055046
H            0.98795654362505        1.27002148661448        2.65970682780763
H            1.27582098769787        0.17141632317406       -0.67391308580915
H            7.44852275049773       -0.45685292679232       -0.98192553478847
H            7.32694679585662        1.30183092830895       -0.93692280850893
H            7.19824957223337        0.45125586163172       -2.49297784285347
