47
 energy: -80.199533609167 gnorm: 0.000782573991 xtb: 6.5.1 (579679a)
C           -3.94452158118857        0.52004718708619       -2.25699760834087
N           -2.77588011249863        0.07873563154116       -1.49950634416226
C           -2.62426144377212        0.28098681972579       -0.14905385396685
C           -3.70409599016656        0.94789197572206        0.69953594111239
C           -4.77580876873555       -0.09544188569667        1.04952583221163
C           -3.06674210030426        1.47078680277391        1.99817350729368
N           -4.33032157568802        2.05720486684661       -0.01843235162718
N           -1.57835357824132       -0.13453084348089        0.48915428441508
C           -0.54711706041994       -0.77958586138264       -0.13006571138279
C            0.62827148180877       -1.25275689741411        0.81872556300644
C            0.66630761789491       -2.82032154415407        0.66733056936409
O            0.53378168787976       -0.83783159175557        2.04390978812200
N            1.88648442013261       -0.71562504558531        0.08293298369104
C            3.08610675477095       -1.00157105820088        0.88801161357337
C            4.22358363093961       -0.13273050052727        0.41884529263625
C            4.43007071561967        1.12704987236500        0.98026684537574
C            5.45846192732660        1.94741171355343        0.53621101130903
C            6.27318013864010        1.48330731974147       -0.47982296803249
F            7.27607613248131        2.27208591473876       -0.91756932324723
C            6.10349136266907        0.24092365005720       -1.06245035828337
C            5.06868410826248       -0.56322403948321       -0.60401443742089
C           -0.63666248310493       -0.98980496754456       -1.47729408904589
O            0.32364337653489       -1.62536906305685       -2.21637831188499
C           -1.78018346472894       -0.55093900202723       -2.23244642381353
O           -1.87961720559656       -0.72851509974298       -3.45646165433977
H           -4.85774986226134        0.29080970992601       -1.71663174842590
H           -3.94803846077087       -0.00218146397501       -3.21413109373807
H           -3.89319325217113        1.59400541315128       -2.43071714922513
H           -5.50492941751782        0.34076218645959        1.73056560235482
H           -5.29961276930324       -0.43611318293968        0.15827217623667
H           -4.31366196564761       -0.95549122444171        1.53398630531624
H           -2.65469511388256        0.64602754130185        2.57982526486340
H           -2.26413516996621        2.16990071303193        1.76586388595365
H           -3.82214632387294        1.98427098076727        2.58988077432361
H           -5.18411126585653        2.31846298963415        0.45224795085888
H           -3.72006868992966        2.86446999118586       -0.00391329755858
H            0.94292921820251       -3.12479818512865       -0.34036685524542
H            1.38490797054859       -3.22322932131044        1.37974386589185
H           -0.31837785234036       -3.21878891796247        0.91073021244474
H            1.76881867458752        0.30030346875965        0.10564581834354
H            3.35845008749504       -2.05650398328872        0.76388817018452
H            2.88904213993654       -0.81312756080445        1.95732115271121
H            3.78455634742129        1.47380738529527        1.78015471782999
H            5.62954456089307        2.92457878797085        0.96853104581221
H            6.76777024798075       -0.08680794866962       -1.85142216183955
H            4.92440849154119       -1.54270141375509       -1.04777174840207
H            0.01571741439473       -1.64583731931048       -3.13870668525300
