38
 energy: -79.617264431254 gnorm: 0.000797668388 xtb: 6.5.1 (579679a)
C            3.60662398852510        4.04943117339166       -1.10298568050594
O            3.61377077601833        2.76419459794770       -0.48878172888502
C            2.44751699737797        2.09566671311257       -0.49536889364517
O            1.44250816505960        2.56698196313791       -0.99319354859281
C            2.51809477658922        0.76618689903444        0.14820506865906
N            1.32821302323998        0.08265263349452        0.16534722055573
C            1.31560882398869       -1.11003583533981        0.71342743084237
C           -0.00744018699090       -1.86739383631764        0.72512225594209
C           -0.37232754801481       -2.22689894585360        2.17140090457087
C            0.13463913764906       -3.13429000068468       -0.13017175167998
N           -1.02233702842693       -0.98523291010955        0.15377657867579
C           -2.30820265790015       -1.30523268321235       -0.01554254729706
O           -2.83164108202805       -2.37029074103673        0.28298959740626
C           -3.06772075588022       -0.17641695994249       -0.62915940573260
N           -2.58905869129955        0.98254016318550       -0.96346297098167
N           -3.62703367856080        1.70444635794721       -1.47901581041677
C           -4.67103841520843        0.93782429943415       -1.42514283881182
C           -6.04770497078256        1.25420033574348       -1.86614090271678
O           -4.38521563993386       -0.26310859765563       -0.89882416770254
N            2.33788764374935       -1.76246160577081        1.26737849439431
C            3.54634335351525       -1.15443524173770        1.29263155162582
O            4.57897797075550       -1.65531382142645        1.77948415179479
C            3.62971351263467        0.18606762164110        0.69927536864871
O            4.85699141575598        0.74890731694545        0.75132280756205
H            2.88360072608503        4.70573065681299       -0.60993916170710
H            3.34639706698183        3.96513334654432       -2.16199184870304
H            4.61098930747989        4.45564634701632       -0.99782942739208
H           -1.28133071671301       -2.82515049195594        2.20185202607618
H            0.44694814562410       -2.79661013259953        2.60896688520545
H           -0.52308737756194       -1.31957608028774        2.75544800955089
H            0.31245570896226       -2.86435015495000       -1.17054710555290
H            0.98262454666745       -3.71237125816860        0.23552895999726
H           -0.76581497892556       -3.74318055881409       -0.06977184242004
H           -0.68721603237591       -0.06739590975203       -0.13667894640943
H           -6.35126430739842        0.57179172065634       -2.65979928993271
H           -6.08870777382070        2.27698598060313       -2.23204437789574
H           -6.74303774868792        1.13500210190164       -1.03576510677618
H            5.43027350386215        0.09035553705176        1.20004104225648
