42
 energy: -83.624567397033 gnorm: 0.000570132507 xtb: 6.5.1 (579679a)
C           -1.31966212816562        2.42017989358584       -0.66626141949437
O           -1.97002069978940        1.85637957993658        0.43535655088700
C           -3.22187262795824        1.01480229928627        0.05522558178251
C           -4.07471947189855        1.18758597996092        1.36487982041185
O           -3.79074228422627        1.43228764123622       -1.02818790917802
C           -2.70019637035996       -0.47530547209727        0.00533499664136
N           -1.35157003046332       -0.64215548885450       -0.08778798988230
C           -0.82420833973604       -1.81798245271628       -0.19353902699378
C            0.68280823031129       -1.98981342827689       -0.26688579527491
C            1.09923077251405       -2.54295960900818       -1.63826542670114
C            1.18349200611805       -2.90708909335949        0.85907752370071
N            1.23635428048320       -0.64956439543103       -0.08382897356281
C            2.53495918440989       -0.34491973514713       -0.07694948130020
O            3.46201904557780       -1.12801185948136       -0.24379881527377
C            2.74906686113635        1.11060203333023        0.17527009733254
N            1.83122147358205        2.00334598728634        0.38134151796780
N            2.47206869719634        3.19050556401238        0.58479051151716
C            3.74048169159542        2.94479681970131        0.49091275950232
C            4.85826685774836        3.90299753060985        0.63686004524619
O            3.98345435344242        1.65031044332560        0.23370518109324
N           -1.60936322882658       -2.94607930946670       -0.24288615523464
C           -2.98419373550134       -2.91561365909546       -0.15426193022838
O           -3.60179120581426       -3.99483319841587       -0.20448477995551
C           -3.59765958976427       -1.56315536051446       -0.00423854844369
O           -4.85887551423915       -1.48332915507352        0.11494685024616
H           -0.58623329287495        3.14957556074275       -0.30064006543146
H           -0.77427406269555        1.66631045450606       -1.26443884862806
H           -2.01568744464667        2.94740981244616       -1.34312747229312
H           -4.99808620483564        0.61796401780528        1.27184306316436
H           -4.31941636569966        2.24369598940791        1.47935665180253
H           -3.51929334123748        0.84930148547483        2.23974714279228
H            2.17868936444333       -2.67506311652913       -1.68280906719046
H            0.62282549349647       -3.50766793978193       -1.80180692267056
H            0.79135464206924       -1.85737983205155       -2.42701348175325
H            0.75236501518608       -3.89964344419058        0.74603843842166
H            2.26762372110355       -2.99483874041386        0.82054408875721
H            0.89309235656446       -2.50268874259229        1.82824295174093
H            0.53693567003834        0.08512459324456        0.06000711768763
H            4.46639062003411        4.88913386311745        0.87252355957936
H            5.43311266109371        3.95200484086897       -0.28734702457083
H            5.52798789253166        3.57696856121953        1.43177691831768
H           -1.18593895192807       -3.85319191861280       -0.32882923452330
