42
 energy: -82.976655472178 gnorm: 0.000428823715 xtb: 6.5.1 (579679a)
C           -3.15920282301931        3.37056985545808       -2.51083197861760
O           -3.38080747415836        2.05865567043882       -1.99826887978667
C           -2.32675893646345        1.46254252530484       -1.42198980295256
O           -1.23985414355955        2.00565162287574       -1.34370819187464
C           -2.61537522721998        0.11047109613515       -0.89784633559245
N           -1.54059901262227       -0.48692085237065       -0.28899634404208
C           -1.70490352221878       -1.68719557963969        0.21705920781144
C           -0.49054869890827       -2.31028076041644        0.89600296835189
C           -0.81234519653123       -2.60027760473920        2.36597582892905
C           -0.07916094224802       -3.58940313110159        0.15820523593139
N            0.57706488114399       -1.31116376035671        0.79735986406891
C            1.80363725861701       -1.43036160674017        1.27908384961951
O            2.28376818440256       -2.36569597506020        1.89545536498657
C            2.63935593701082       -0.20741425608602        0.97594211479280
N            3.86551047669227        0.03082529039135        1.33575776385544
N            4.15122908030499        1.23951132170919        0.81360134077730
C            5.45601218565862        1.83152422061399        1.01467304152977
C            3.11030818103507        1.70496617695199        0.15479252293820
C            2.96749765004452        2.97229196435072       -0.57914285155710
O            2.14733475801986        0.81282669148985        0.24409567965090
N           -2.80771297505598       -2.42925909930490        0.21444976997658
C           -3.91657205737174       -1.91214992026529       -0.37022543495240
O           -5.01261177398369       -2.49797183858658       -0.44145331239627
C           -3.80346173187529       -0.56713779080360       -0.95357918908782
O           -4.93853898497693       -0.10421241519939       -1.51709297620261
H           -4.10722115486421        3.71599678993386       -2.91990441186008
H           -2.82810775213060        4.03889932419607       -1.71163118591493
H           -2.39678890733924        3.34807479997575       -3.29378980048712
H           -1.69156131767669       -3.24297266075336        2.40895848991762
H            0.02371457724564       -3.09965640303561        2.85266645468554
H           -1.02666803714592       -1.67018106988682        2.89078256511756
H            0.76204758980521       -4.06671796928590        0.65841522409051
H           -0.92715912345556       -4.27388770181880        0.14471759237561
H            0.20342929146408       -3.35363196283224       -0.86700597386069
H            0.28750559575288       -0.46706268211166        0.29736892380488
H            5.33168060316808        2.82517751381434        1.44063280741242
H            6.01359266476303        1.19074873306850        1.69262643356739
H            5.96461477027971        1.90400788239807        0.05484866574924
H            3.24863983374332        3.80811610996769        0.06135573886753
H            3.63487350582320        2.97510156803723       -1.44239714142672
H            1.93727015786640        3.08536223277137       -0.91378117276750
H           -5.60312739000007       -0.81776634949085       -1.39318146545563
