20
 energy: -37.598274142678 gnorm: 0.000898110938 xtb: 6.5.1 (579679a)
C            2.60753387097360       -1.58136190161355        0.00761737784509
O            1.35264197361766       -0.85586532698422       -0.01874699259882
C            1.39609522770460        0.42202459069265       -0.17660164794686
O            2.32227596259406        1.14749429753498       -0.34338659295426
C           -0.09427243456667        1.03141191079427       -0.16258674495794
C           -0.05141321213535        2.48410326502735        0.28648712879569
N           -0.56761802951879        0.79105045999308       -1.47551208413771
N           -1.47856522772411       -0.07764216273736       -1.44942068204138
C           -1.69550927615472       -0.42138867467865       -0.13134923189435
C           -2.67142911326938       -1.39733904841298        0.33043717677204
O           -0.91713407247454        0.22951848985940        0.64681197540476
H            3.13993341018622       -1.33323217080970        0.92569208923498
H            2.33751423739892       -2.63369606676407       -0.01346236950921
H            3.20281685352445       -1.30712494240384       -0.86344781207139
H            0.62441698444777        3.03027078106763       -0.36843572724158
H            0.31122202030182        2.52763187756554        1.31103769444355
H           -1.05300010109503        2.90405764900292        0.23113746142179
H           -3.65542151422876       -1.13891471860433       -0.06889329140012
H           -2.41680400393882       -2.37696505357856       -0.08423751101019
H           -2.69328255564304       -1.44403325495053        1.41685978384602
