42
 energy: -83.001606829503 gnorm: 0.000875204787 xtb: 6.5.1 (579679a)
C           -6.05987549642658       -0.88126829354673        0.38388678942456
O           -5.07447073659740        0.12951506293302        0.11505373641057
C           -3.81279024611700       -0.20482726540054        0.27297695111975
O           -3.41518235684830       -1.27920330810423        0.63676022952439
C           -2.85399458602164        0.98314996638499       -0.03768095997934
C           -3.50416194717447        2.01860439613529       -0.95457959507805
N           -1.71268133181413        0.38969109992019       -0.69467920434785
C           -0.73784973779992       -0.05264968963990       -0.01783005550114
C            0.36978555327513       -0.82778242562283       -0.69822656068326
C            0.33090907134669       -0.59756766279692       -2.21117038638217
C            0.16719323134997       -2.31183448693888       -0.35647926411501
N            1.64176704549018       -0.34554934840967       -0.15043111971471
C            2.83946731993089       -0.86933996635277       -0.50751939768252
O            3.00488433003741       -1.87512289284369       -1.17058395550352
C            3.95143611218526       -0.05254233533020        0.04110312421435
N            3.82975859314139        1.03954397759957        0.73511639061102
N            5.09089121256241        1.46744759125527        1.01852777330561
C            5.90314148028364        0.61016928318850        0.47663464675969
C            7.38222554957627        0.63246772404007        0.49151548984430
O            5.24332970942458       -0.37148993778634       -0.15490550275504
N           -0.62366280164947        0.07716517776194        1.36162393796619
C           -1.43836552850804        0.85711522913676        2.12482779879900
O           -1.28285143468654        0.99788318853736        3.31643882397722
C           -2.54895468023643        1.56060390033883        1.33377720110277
O           -3.16099408943752        2.48411309714845        1.80152602144688
H           -6.06127388140599       -1.11921140132815        1.44929000950501
H           -7.01787934109267       -0.46343102250680        0.08355018742514
H           -5.83415541145937       -1.77955661859131       -0.19322944646078
H           -3.85549487359877        1.53596709253438       -1.86344954538079
H           -4.34252784071588        2.49189315193242       -0.44655470922076
H           -2.76795197456590        2.77681801797547       -1.21430354369711
H           -0.64203452726347       -0.89629393701490       -2.59756629117987
H            1.10663631599477       -1.18749996387266       -2.69532258769814
H            0.48943529556271        0.45646501089656       -2.43241207425777
H            0.88221720043646       -2.92505179170637       -0.90084641583552
H            0.30171803100877       -2.47222276889295        0.71164997162014
H           -0.84329094252616       -2.60749979802119       -0.63569920185972
H            1.65215378576725        0.56752099318543        0.27932838307528
H            7.73012811372416        1.41119775173307        1.16577861975005
H            7.76067974198025        0.82862169184486       -0.51233897697813
H            7.76676199320527       -0.33452234282488        0.81384414999319
H            0.14592507965168       -0.37494214696761        1.83259755843845
