43
 energy: -83.128130845969 gnorm: 0.000623687946 xtb: 6.5.1 (579679a)
C            5.29164965406441        3.14434057292714        0.05231471083904
C            5.27073586865084        1.66593933554524        0.06797295564278
N            6.27255451730711        0.85227258200576        0.19228010660287
N            5.76270439441492       -0.40965423308528        0.14593624546337
C            4.48103301114480       -0.29083566442400       -0.00564440620121
C            3.46541465158710       -1.36705845033723       -0.08884101477918
O            3.75331085339467       -2.54643922051524       -0.00920083365259
N            2.21490620474460       -0.87283330449536       -0.27690695376132
C            1.01670766592220       -1.71240184469250       -0.19696809114759
C            0.87812014645505       -2.28486515411579        1.21706321337243
C            1.07374152907327       -2.82655658887553       -1.25457012316271
C           -0.16323721351289       -0.82687872815677       -0.52722162598205
N           -1.26533367361509       -0.94929514687464        0.12918117939681
C           -2.34539839398904       -0.15273831927086       -0.18558008921234
C           -3.50662692554031       -0.46896585480733        0.61769292106137
O           -3.72285427458481       -1.38452943552715        1.33169924465850
O           -4.62978561760363        0.51368578223338        0.42962782744509
C           -5.93298006763039       -0.05070703383904        0.75989735174238
C           -4.40794802472848        1.83749216871337        1.00368857361070
C           -2.26751534678215        0.75847746193047       -1.21255608059800
O           -3.25173734513965        1.55935858461397       -1.58378936500303
C           -1.02384657045049        0.88074426214167       -1.99001980850352
O           -0.91850548142484        1.66138088787437       -2.91502469171516
N           -0.02346814812417        0.04607108303750       -1.57197864831469
O            4.10717232557992        1.00671293270242       -0.06048423888745
H            4.60186348572846        3.53125036946170        0.80164234328389
H            6.29831986529302        3.50281026328635        0.25584217412792
H            4.96451334443951        3.50729256255260       -0.92231339135902
H            2.08837609163354        0.11906083152385       -0.16865050788823
H            0.85031148504408       -1.47312391835105        1.94183087905264
H            1.72460776537092       -2.93395751606259        1.43586590044010
H           -0.04499470496047       -2.85712898740146        1.29028606237654
H            1.85705538490477       -3.54033869037861       -1.00600136490444
H            0.11587972929690       -3.34353817623552       -1.28389560891523
H            1.27731117209599       -2.39688449282166       -2.23364112312372
H           -5.98759453795174       -0.24345301773943        1.83123668290656
H           -6.67148415458227        0.68326372919239        0.44852705503975
H           -6.02840004406747       -0.97031353350676        0.18726401044301
H           -5.05875672587184        2.52041571272583        0.46251440976003
H           -4.64505691555142        1.81146372505576        2.06726765560178
H           -3.36485582602180        2.09159008214384        0.84230821605227
H           -2.96402359972632        2.09794704080205       -2.35099681342952
H            0.85811644570911        0.11092534103984       -2.06350793838042
