42
 energy: -83.643762722738 gnorm: 0.000727005576 xtb: 6.5.1 (579679a)
C            4.95624616259926        3.22968977929526       -0.16372693903828
O            3.98514206715703        2.19534911231210       -0.16231857918317
C            4.12797487615621        1.25289250235241       -1.14941046520949
O            5.03526549889570        1.35368694502198       -1.96271804591084
C            3.12584094906453        0.20692272577749       -1.07218501629771
N            2.21127741413797        0.33824123968864       -0.04328166289266
C            1.29211621437136       -0.53642548346933        0.13393286259273
C            0.30133425948251       -0.40004630799137        1.27604810524780
C            0.44606928277258       -1.60449085994572        2.22332111418679
C            0.58814803547385        0.90571840938178        2.02737665279437
N           -1.04415337294751       -0.36711279945772        0.69825455177837
C           -2.17640693701781       -0.30111354383046        1.45009970837152
O           -2.17107644243600       -0.09244261392885        2.66552078574922
C           -3.48086372835023       -0.30641443763921        0.63214971182795
C           -4.57357537639549       -1.09522361362166        1.37897488681867
N           -3.82803442114218        1.11326472101175        0.48184999042498
N           -3.84258939016786        1.34332983143278       -0.86032725597269
C           -3.55213869005241        0.27865389138608       -1.50953450890012
C           -3.51395239754581        0.08256008180846       -2.98485255406014
O           -3.27811925531252       -0.82897018237053       -0.67518797963764
N            1.17245490082166       -1.64004511976461       -0.69084000456411
C            2.01765871973804       -1.90498541337419       -1.73700328591325
O            1.86439435164036       -2.92864875873103       -2.40117064046166
C            3.10276519484458       -0.88098895192440       -1.98519289478325
O            3.88596144894467       -1.05751883219223       -2.93692752905883
H            4.71812274857125        3.89566818347871        0.66479262845718
H            4.93100006823440        3.78882097579106       -1.10488688711336
H            5.96208680376606        2.81907006277771       -0.02720215375143
H           -0.20920309606878       -1.48638502830465        3.08477856922846
H            1.47583937054452       -1.67666187156270        2.56988824568613
H            0.18263477813989       -2.52611609091223        1.70781211311297
H            0.46037572692794        1.75805534466525        1.35965826429937
H            1.61708920704749        0.89612708621936        2.38497372218644
H           -0.08046334446682        1.01195220277957        2.87933518127237
H           -1.14889536572709       -0.76966263951039       -0.22430509664047
H           -4.65217021733468       -0.72290033011813        2.39894707084392
H           -4.32528085764308       -2.15530220542732        1.39714452082101
H           -5.52619177395011       -0.95872022552165        0.87122649463711
H           -4.18539031508793       -0.72449412038393       -3.28611532874267
H           -2.50961615691916       -0.17315965663205       -3.33230320971852
H           -3.82972774158221        1.00277237576773       -3.47450860202245
H            0.46805180080404       -2.33494838431064       -0.50208454047578
