43
 energy: -83.847318209276 gnorm: 0.000526034102 xtb: 6.5.1 (579679a)
C           -3.45975437889981        1.78981883424713        1.85732116814551
O           -3.96239952457932        0.60656006562551        1.24218487680533
C           -3.74030094991263        0.49338946142394       -0.12848134064124
O           -4.81900200588096        0.90276420718297       -0.92289241129161
C           -6.04597671718673        0.23339794874695       -0.65403576673293
C           -2.54292751924793        0.08669698455918       -0.64938295469987
N           -1.53484537105233       -0.16640926981002        0.30171150201567
C           -0.38091954504293       -0.55940735308630       -0.09846273324311
C            0.69261348988973       -0.88557597699315        0.93030094879397
C            0.79647094425914       -2.40738537369298        1.07158464174338
C            0.35889771690025       -0.24218305527458        2.27893713662671
N            1.99124071611334       -0.40231562790755        0.44838447939710
C            2.21471041392945        0.89611607146248        0.14275837426103
O            1.36070171020990        1.77286967058095        0.13789664442807
C            3.62143201403069        1.16843521653749       -0.22621982675260
N            4.12964627293880        2.29507316886635       -0.63496313275848
N            5.45681550769842        2.06885428868741       -0.86037990334271
C            5.67851327568486        0.82496324296126       -0.57618455803740
C            6.96247204000210        0.09327881173418       -0.64786883883671
O            4.56206819656612        0.19395254001661       -0.17023878298499
N           -0.05882574580549       -0.76593217215498       -1.39618773767031
C           -0.97875333241619       -0.53039107372070       -2.47017573622853
O           -0.55861465278939       -0.74511948049104       -3.63246804946541
C           -2.22494294152341       -0.09265718470145       -2.03861054337076
O           -3.19510161722719        0.14213717990351       -3.02793504699336
H           -2.36278273150951        1.80971994128618        1.81963413138356
H           -3.85501655190627        2.69101162418700        1.37303937104852
H           -3.78267420380280        1.77119971962604        2.89976603465267
H           -6.80568809650104        0.68182118534119       -1.29518571459933
H           -6.33792049150223        0.36163300499760        0.39442245600801
H           -5.96856321646859       -0.83860502761572       -0.87530817844734
H            1.05298138978434       -2.85878339305877        0.11436121512964
H           -0.15778105362437       -2.81087204609756        1.40755793837944
H            1.56288393978121       -2.66666716739051        1.79960249873316
H            1.13315445115217       -0.47566832975938        3.00690484294944
H           -0.59586776124337       -0.62903246632452        2.63287786400244
H            0.27906122666010        0.83923947903314        2.17196251460409
H            2.77808615012673       -1.02169369124094        0.52498073056411
H            7.73742024679445        0.75004111390940       -1.03540635160918
H            7.24563919413780       -0.25723277770477        0.34437851220442
H            6.86142762542474       -0.77759574143015       -1.29479646767323
H            0.85425536727458       -1.10604463471677       -1.64309890827252
H           -3.96183248123236        0.57679908225579       -2.62228389823622
