33
 energy: -58.509495363415 gnorm: 0.000513014770 xtb: 6.5.1 (579679a)
C            4.90242837386216        0.20386556167264        0.15819961553036
O            3.69802499289188       -0.51735486172279       -0.00588089814413
C            2.53123150542230        0.29107094894467       -0.03971694648624
O            2.66346277898406        1.53485925738697        0.10344563593858
C            1.38167429837706       -0.43689780988957       -0.26294115242228
C            1.26553281117155       -1.90522651413861       -0.39796331878280
O            2.19786093251612       -2.57769259140785       -1.22623949573204
C            0.17915487085302       -2.54956296610252        0.08544587964240
O           -0.25293552021112       -3.73495735191962        0.05640940221106
N           -0.73968111308216       -1.57822683213370        0.79929344308009
C           -0.92330618292878       -0.33905554705598        0.32565317184746
C           -2.32787068389907        0.24875215536315        0.48611579658152
C           -3.08715499400706        0.13422530713945       -0.84318736345431
C           -2.33952670304794        1.69264302517880        1.01450305525928
N           -3.03460197679335       -0.59584150282374        1.45593562707044
N            0.11203189338413        0.25301696998319       -0.22914117790835
C            0.07477266951546        1.56969329493993       -0.85549241795261
H            5.06509839899097        0.90452667213987       -0.67096593626611
H            5.71807324947423       -0.52117409022016        0.17966019070146
H            4.90355900497989        0.77327972191635        1.09675621107880
H            3.07980425560988       -2.22593766810855       -1.02962195426573
H           -1.58719570708089       -2.02762232662660        1.13016829141127
H           -4.08597936527599        0.55162994471841       -0.72700563763785
H           -3.17652619920631       -0.91389281528164       -1.12867323210326
H           -2.57998184200029        0.67433205329012       -1.64009776508725
H           -1.60384895846403        1.81544372903687        1.80843569789394
H           -3.32660920613134        1.90371361831596        1.42339088952550
H           -2.14560988481456        2.42044138024666        0.23053269594273
H           -4.02637238760486       -0.43148137227242        1.36924429322619
H           -2.77176831738934       -0.32153933661436        2.39352404872947
H           -0.88778488801743        1.74689481600556       -1.32739579348812
H            0.84884637561703        1.61265920132134       -1.62085058130652
H            0.27519651830851        2.34541492872426       -0.11537527463280
