42
 energy: -83.590973861560 gnorm: 0.000372097366 xtb: 6.5.1 (579679a)
C           -1.69573832667425       -3.91155983301393        1.77779213959496
O           -1.51873816323360       -2.62763907158888        1.22532406485132
C           -2.72146692583890       -1.88993969464284        1.06666896286890
O           -3.79482127048349       -2.42452623931728        1.43621843249454
C           -2.52242663326350       -0.62318639004969        0.49537286587598
C           -3.57463905964452        0.32323869858767        0.21794922797004
O           -4.89066246004066        0.02266798491014        0.52745079144863
C           -3.24784927116349        1.51990790477518       -0.35213484247946
O           -4.26809335870846        2.42663996194281       -0.61711162683179
C           -3.86167727024448        3.67789524556075       -1.13226836933089
N           -1.97478835982955        1.88168372199984       -0.67730806756561
C           -1.03806496236969        0.95570029010611       -0.37715982055629
C            0.38714196676039        1.36201631250366       -0.76044260310832
C            0.48939897871906        1.33132910513642       -2.29851114854744
C            0.66827119952118        2.78214813876097       -0.24370962754143
N            1.30935436008871        0.41891759645028       -0.15116336558307
C            2.67108738047996        0.41450845977069       -0.39111717188146
O            3.26687394613033        1.35368438639508       -0.97281557462048
C            3.30756232033143       -0.74642442384934        0.15116961186107
N            2.70531633406464       -1.76510199208224        0.77905176579207
N            3.69337331972813       -2.64284909093188        1.13032061913663
C            4.81523920545901       -2.14970421416201        0.72030143444739
C            6.16473572092243       -2.74758046174950        0.88174768823999
O            4.67637398831475       -0.95640542111495        0.08874539387489
N           -1.21957620179268       -0.21747215279355        0.15715905354857
H           -2.12365447752025       -3.86285848852610        2.78866304774093
H           -0.71474816685083       -4.38890534871352        1.83158774582463
H           -2.35847979325858       -4.53103358590320        1.15803504500421
H           -5.44700327855642        0.76877192958133        0.27596391234694
H           -4.76523013560561        4.26976186394426       -1.28563101532462
H           -3.19902184428635        4.20167767731194       -0.43103290206188
H           -3.33473277619697        3.56402344105687       -2.08818878702952
H           -0.28282095509866        1.97533409727658       -2.71898394866820
H            0.33760555626012        0.31543113726166       -2.66466426849633
H            1.46477950699560        1.68569248146923       -2.63033271681247
H           -0.10436508871172        3.45860963285046       -0.60842618160753
H            1.63962293691932        3.13403673140362       -0.58920382681911
H            0.65627799992047        2.79090090264081        0.84686790489646
H            0.88521142958050       -0.45687824733993        0.15333752857748
H            6.08293372243360       -3.68190011643399        1.43222714375177
H            6.61700394914458       -2.94348693221302       -0.09087417958375
H            6.82043795760368       -2.06712799726534        1.42567266429910
