46
 energy: -86.260577714601 gnorm: 0.000786767703 xtb: 6.5.1 (579679a)
C           -4.49081462387550        1.86150609401027        2.64249714297769
O           -4.67577438855169        2.84764130873079        1.62097415224500
C           -3.95602212409522        2.73642282559672        0.51025722851994
C           -4.26870030534146        3.83564123952734       -0.46704323829816
O           -3.15984558947847        1.84655027369003        0.31063198233287
C           -2.61242798206636       -1.11874989438454       -1.52113221106934
N           -1.84495647211255       -0.64276724856571       -0.66450481540135
C           -0.68394081186493       -1.20477105345258       -0.42049565086862
C            0.20429870112601       -0.63625321828547        0.66148378007448
C           -0.32524295298266        0.73991237715424        1.07922192299924
C            0.18692049833031       -1.60518356461673        1.85557972619746
N            1.54908126855559       -0.49313819659849        0.10130045676331
C            2.60888048775918       -0.08321959562329        0.86196499347729
O            2.61189924665089        0.00276625282341        2.07078619490652
C            3.77208235137543        0.21901095350250        0.00001469952567
N            3.79094986268926        0.18833741053434       -1.30010519849483
N            5.04200138962916        0.55655542590768       -1.68231517801980
C            5.70982782142775        0.79250550165107       -0.59067935090247
C            7.11943190699674        1.22355213055732       -0.46899959292934
O            4.95973071835634        0.59764971640509        0.50243213876133
N           -0.44832919551784       -2.31664541790261       -1.17685016991089
C            0.76388931495071       -3.14525225656615       -1.04843706231504
C           -1.32234235263389       -2.82326794055906       -2.11849868144867
O           -1.11560659616743       -3.80397635480842       -2.78881488866895
C           -2.65759941492318       -2.11459637274349       -2.36065666110950
O           -3.49548228048237       -2.57607691761336       -3.24406272369524
H           -5.35333298385877        1.92824842459593        3.30388872043620
H           -4.42711549757632        0.86606283271190        2.19844538756089
H           -3.57350906537782        2.07236607825572        3.19667797646419
H           -5.27512366818485        3.68118336379714       -0.85399111451497
H           -4.24171665469906        4.79812810978591        0.03971833454279
H           -3.55651213600178        3.81646699612442       -1.28686725784990
H           -1.33368414671554        0.64356079431087        1.47802366826151
H            0.32533380283198        1.15580111081900        1.84635897903475
H           -0.34885610338648        1.41110312295635        0.22248080454869
H           -0.84526944656794       -1.82101190377457        2.12532336371169
H            0.68615664173005       -1.14414300242304        2.70547116544703
H            0.69287953168518       -2.53512346998770        1.61022446551610
H            1.61546728468475       -0.32007874225847       -0.89085683290400
H            7.68415102400586        0.48606410302461        0.10169591624883
H            7.55570832763317        1.33181895195250       -1.45898777431276
H            7.17338633282332        2.17401770346083        0.06222663536815
H            0.48613891685156       -4.08009765383536       -0.56401738902220
H            1.13223962484748       -3.34852636462974       -2.05280569939239
H            1.51075848032002       -2.61625059923103       -0.46876049602736
H           -3.16900674208087       -3.38374533358908       -3.67879884841470
