42
 energy: -82.912444193693 gnorm: 0.000565623229 xtb: 6.5.1 (579679a)
C            6.55317319601797        0.07319967674157        1.50580213704420
O            5.22264744065206       -0.02326621664110        0.99929848661155
C            5.09977465527363       -0.16898188666496       -0.32451769455445
O            6.07478699498833       -0.22415649229945       -1.06132590653441
C            3.70819218785457       -0.24217629225110       -0.79341401571868
N            2.72022995794065       -0.19627687467582        0.15467867826938
C            1.48665381899400       -0.23758157947618       -0.29029963515724
C            0.39786914607930       -0.19523012373522        0.77631357672486
C            0.58274227329654        1.03811053657758        1.66520319819854
C            0.44140451814041       -1.48315523009998        1.60694985063835
N           -0.87307898999242       -0.11401382030444        0.05202679832303
C           -2.06722604353327        0.01493313926350        0.60036574103935
O           -2.34761104615105        0.06930781878607        1.78913079513660
C           -3.13555551284588        0.10185452964524       -0.45214179042455
N           -3.03277107189369        0.02833934930669       -1.72394824894376
N           -4.27605641307777        0.17484170617967       -2.27846567598874
C           -5.13077228169280        0.33841218110349       -1.34488669567867
C           -6.58460638637323        0.54251063215411       -1.43767769579616
O           -4.47434831397993        0.30395396295639       -0.10805298348528
C           -5.01415771529229        0.44266903446775        1.24334389892369
N            1.07975801754220       -0.31695867630107       -1.55188794037693
C            1.99671499000006       -0.37216790006733       -2.56466483695614
O            1.65997697422361       -0.44603259585654       -3.75417822270705
C            3.40486936739045       -0.33678707910856       -2.13359799834319
O            4.34120403301535       -0.38964681762633       -3.10401304661441
H            6.47007827861140        0.19515365290914        2.58427435596635
H            7.11519858249897       -0.83467078659815        1.27090564105567
H            7.06337887983182        0.93498504499678        1.06700153866988
H           -0.12642570715744        1.03010512601623        2.49044852277391
H            0.43872062676055        1.94584533749294        1.08079908718568
H            1.59743058714170        1.02861435558022        2.06246643563074
H            0.26326704362511       -2.34691506418863        0.96742570944191
H            1.42792757781260       -1.57378860894464        2.06016788350468
H           -0.31406225838264       -1.45802603190792        2.39005416048859
H           -0.75731784455683       -0.15535537433487       -0.96770457361673
H           -7.11651596984152       -0.23973064177343       -0.89626424475159
H           -6.86331725935850        1.50501394507291       -1.00820697836627
H           -6.87178051947955        0.51764545062929       -2.48738272714230
H           -4.78190863287152       -0.47303259904090        1.78300445925560
H           -4.53141837364068        1.30409023630944        1.70019768144253
H           -6.08423698805004        0.58871056163836        1.13994817383918
H            5.23716718047982       -0.35034158593235       -2.70717889899889
