38
 energy: -79.621612311341 gnorm: 0.000929422100 xtb: 6.5.1 (579679a)
C            6.19370287981147        0.43843825284365        2.01205272870645
O            5.14109315178721       -0.30195951870982        1.41209174835259
C            4.09038002887526        0.42782427204260        0.95700921004520
O            4.08279516265194        1.64833474041024        1.07559697210653
C            3.02823804928130       -0.35304898704906        0.34248046424029
N            1.98950736976134        0.43256654678397       -0.12299625320128
C            0.97691945898234       -0.09244404675814       -0.70670283008302
C           -0.13844794377582        0.80328830569666       -1.22360613911380
C            0.22666232134772        2.26296923965755       -0.94439549511115
C           -0.36097028141693        0.60491832324826       -2.72734950034733
N           -1.38380932956109        0.53451226214631       -0.47929613181830
C           -2.19771534469474       -0.52087104576445       -0.64395994160891
O           -2.01387481298048       -1.47001911258713       -1.39026733600095
C           -3.39042902468940       -0.41195030170658        0.23992050938291
N           -3.60145589252898        0.50474399541272        1.13570340576152
N           -4.79898895862751        0.21486982156629        1.72017707755570
C           -5.24143445360148       -0.85961830103073        1.14137994556803
C           -6.51003987288244       -1.57152026635519        1.41095484568044
O           -4.39578693652926       -1.30573286038649        0.20110487098247
N            0.87344384615486       -1.45300911678254       -0.89770099008392
C            1.81669136386030       -2.35191835872578       -0.47572536500954
O            1.65103145793429       -3.55375412233400       -0.67468210784633
C            3.02797937189696       -1.76689597469318        0.21856241034989
O            3.91463859237034       -2.54298750963499        0.62088738640577
H            6.60762987640828        1.16554418617982        1.30640210473271
H            6.96449379035922       -0.27571850614266        2.29920432602930
H            5.83607097147586        0.97304097739430        2.89776377969684
H           -0.56943819338599        2.92024218991951       -1.28796078535916
H            1.14745790090783        2.51467073564071       -1.46846269823522
H            0.38547797120082        2.41535581650420        0.12262103512922
H            0.54657404769308        0.88390350191802       -3.26041277208267
H           -0.60083545039643       -0.42890605415319       -2.96345242465788
H           -1.17799184113730        1.23958027792350       -3.06528116323609
H           -1.68987465146619        1.25345447084867        0.15912414135574
H           -7.15936311525347       -1.51695796068457        0.53763440500936
H           -6.31366120875848       -2.62231762245033        1.61927258219711
H           -7.01100919558619       -1.11596010876641        2.26083045478270
H            0.05433789450763       -1.82762114142139       -1.35852147027832
