47
 energy: -79.517007432093 gnorm: 0.000975082671 xtb: 6.5.1 (579679a)
C           -4.08507953305693        1.15343372448529        1.85277774063022
N           -2.89313063185227        0.77988542858288        1.08192443541414
C           -2.91894379026263       -0.07689696518884        0.00809444881475
C           -4.20263494520716       -0.73016033864782       -0.48504326613901
C           -4.95247933716645        0.26352781557830       -1.38549563385839
C           -3.84347556356146       -1.98422954344339       -1.30103229837740
N           -5.04536944338092       -1.09965266304056        0.64485917263226
N           -1.84995617944773       -0.35759021207931       -0.67082144824986
C           -0.62698583764841        0.15339524244526       -0.32880780849961
C            0.45018966238115       -0.28898324172393       -1.20076993472170
O            0.36483325248629       -0.93650662969888       -2.19675929727524
N            1.84658985126873        0.13853353611715       -0.77250864969837
C            2.18180188491637        1.39078301377615       -1.49498675666578
C            2.81937474112917       -0.96794919548211       -1.05257587850918
C            4.17114004773031       -0.62046399935118       -0.48952794515119
C            4.36969267711395       -0.63755493694244        0.89108642725237
C            5.61332057981147       -0.33760792436033        1.42556076503088
C            6.64482749836395       -0.02789788455140        0.55537820359714
F            7.84899992033075        0.25289244995586        1.06264253969357
C            6.47907904263145        0.00174381129228       -0.81825953298176
C            5.22750067018229       -0.29523604865994       -1.33837583591959
C           -0.52442576408328        0.97943487968745        0.75947026010346
O            0.61601135951523        1.52816251165194        1.18492953841749
C           -1.71219285519466        1.32740707159966        1.53146831293965
O           -1.62897482157188        2.06567619885458        2.50380380461295
H           -4.30290610967720        0.37328569929898        2.57942001680061
H           -3.87253558513203        2.08953157620927        2.36735693061819
H           -4.93380952436340        1.27676821507642        1.18992863650418
H           -5.83481718206140       -0.22114996783838       -1.80097475231839
H           -5.26896720200887        1.14094969967917       -0.82470835673778
H           -4.30638026909570        0.58264820811624       -2.20227162157652
H           -3.28551276012521       -1.71074821575224       -2.19513119431433
H           -3.23494940222362       -2.65841568622500       -0.70129236696097
H           -4.75819649329674       -2.49655898218514       -1.59328969639361
H           -4.62847979128373       -1.88074457944880        1.13368708608379
H           -5.94901168452574       -1.39634349643183        0.30160498734503
H            1.85328297435340        0.34267454074983        0.23002482938324
H            1.47405435293104        2.15600504638796       -1.18749005421602
H            2.11551560974362        1.20712255018747       -2.56461163949819
H            3.19225950314202        1.67672391870994       -1.21423868019300
H            2.40914766359065       -1.86113378735880       -0.57672862327239
H            2.84566696451168       -1.11048988148554       -2.13377434249518
H            3.54744913929737       -0.88849711053548        1.54981078656022
H            5.78095400642564       -0.34581197402289        2.49469669863860
H            7.30945905553344        0.25271804192928       -1.46543808006731
H            5.07323022722918       -0.27802907188665       -2.41047965744285
H            0.42483602161212        2.07535015598985        1.97770073045249
