42
 energy: -82.988652385243 gnorm: 0.000356056196 xtb: 6.5.1 (579679a)
C           -2.96818405303794        3.76490659991908        0.41367842786212
O           -2.57097674244805        2.39696209230376        0.27578663571449
C           -3.56522631346207        1.48531877615350        0.36433385912704
O           -4.71635688425094        1.82000435116175        0.53193747676078
C           -3.12101378880940        0.09592671145148        0.15579240121740
C           -4.04059928716819       -0.80205841611839       -0.45481578288993
O           -5.22378662858831       -0.56478974350627       -0.69703362997187
C           -3.46412285493993       -2.12967115043096       -0.87489518343091
O           -4.08118024903672       -3.03434278178854       -1.39694251185107
N           -2.09879275039022       -2.27158093843984       -0.66286039551476
C           -1.28643256621204       -1.42096527163876        0.00483348409752
C            0.14594260634966       -1.89516643757495        0.23008283337259
C            0.23315429614379       -2.59736110495123        1.59494151869862
C            0.59465792026357       -2.86912771910486       -0.87253067699810
N            1.02342803360473       -0.72592027348344        0.13706549799653
C            2.31227665788176       -0.71871364131463        0.57763043016114
O            2.81833672444780       -1.53775208528572        1.31578896193007
C            3.02443278343102        0.47223904401095        0.05545045436092
N            2.53050987103350        1.37451846146226       -0.73915683862436
N            3.52660963011006        2.26877314955979       -0.98415199884154
C            4.56775670870713        1.85343148280332       -0.32563525017679
C            5.91073376201479        2.47049583654865       -0.26766360787180
O            4.31157619696542        0.72411848182841        0.34982553400612
N           -1.80238286084050       -0.28969307524235        0.44193764903214
C           -1.04820729988133        0.55626038800004        1.37726508605624
H           -3.40810225345346        3.93133163489907        1.40008307266995
H           -3.69748590567893        4.02676055729768       -0.35755380827303
H           -2.06620838013761        4.36212914944333        0.29868869352948
H           -1.72295006232529       -3.14998291983133       -0.98486186617156
H           -0.62485092401919       -3.25876700586856        1.70563975577822
H            1.14223280427658       -3.19210394574341        1.64844217874417
H            0.23905795787229       -1.88299909915348        2.41468210955381
H            0.10268734975014       -3.83423695057486       -0.77038630733071
H            1.66731433622550       -3.02626386981681       -0.77046066863723
H            0.39416279118123       -2.45544504642722       -1.85886323475617
H            0.81862977035423       -0.09048381826777       -0.62244882259171
H            6.65507526555853        1.77321326131120       -0.65275836228830
H            6.16913338793361        2.70142648090573        0.76568498970843
H            5.92345472813329        3.38147780049898       -0.86077067311983
H           -1.74873016309620        1.02807142101390        2.06122199031431
H           -0.36082862875399       -0.05536582453428        1.94916257016864
H           -0.49474498570080        1.31542643853480        0.82966000847698
