47
 energy: -79.457473108386 gnorm: 0.000447874894 xtb: 6.5.1 (579679a)
C           -3.97478073746878       -1.59820553197488        1.37596395533339
N           -2.70768309264130       -1.52819098667651        0.63635701595613
C           -2.14834618455964       -0.37626795543566        0.16727205118959
C           -2.79672377591903        0.98935807917190        0.35176331826408
C           -2.05558027644615        2.02916967748303       -0.50352004965919
C           -2.71663519210645        1.39993265528603        1.82924245543654
N           -4.19513856666218        0.93364188246796       -0.06473975850819
N           -0.99389930785886       -0.37900103902118       -0.44501854102738
C           -0.32741543803222       -1.54474266284846       -0.65894303702111
C            0.95328332313152       -1.46621733279974       -1.43822818125246
C            0.91248737417869       -1.99339514312957       -2.84876473167853
O            2.15590034548039       -1.63265125576228       -0.75190213483381
N            1.83409876191880       -0.35477327685360       -1.17989372255277
C            1.65715035572781        0.63347795713287       -0.09087415963193
C            3.00469827535586        1.13897274397355        0.36235068310542
C            3.37514052616256        2.45877680736739        0.11536917237669
C            4.60488949537255        2.93217533815459        0.54965613711334
C            5.44468411201860        2.06131575197213        1.22171479280419
F            6.63001819536238        2.51113395237815        1.64269026036100
C            5.10730206508492        0.74204335923801        1.47406909564554
C            3.87285682963833        0.28394457271354        1.04074679769258
C           -0.83972658168055       -2.73626058683037       -0.25265973980663
O           -0.22450173905191       -3.91042856871381       -0.47849165020291
C           -2.09496148628758       -2.76408978408450        0.47060291183221
O           -2.58459352189318       -3.80126250863408        0.89927037437769
H           -4.57913603758403       -0.72246390931531        1.16057294794371
H           -4.50053348735954       -2.49913428298229        1.05875125266496
H           -3.75871529508605       -1.66523563321137        2.44237544520068
H           -2.02811814082325        1.71153928464950       -1.54413384476027
H           -1.03434500882662        2.15839421892073       -0.14956200159820
H           -2.57440931625182        2.98405087775715       -0.43740798542706
H           -3.31819563981282        0.74179793993647        2.45290563836645
H           -1.68229022113364        1.36172875726156        2.16858688119310
H           -3.08573568979280        2.41849341140661        1.94071803301764
H           -4.23599776033202        0.77648457689849       -1.06277906086138
H           -4.62321428745141        1.83020942846697        0.12422954420015
H            0.62249282425364       -3.04385654007689       -2.80958896736410
H            1.88903454973496       -1.90666899364696       -3.31986768156863
H            0.17171561374496       -1.44244772122222       -3.42473779685258
H            2.47023936814603       -0.08091742607366       -1.92465847781074
H            1.11735119365338        0.12877664751058        0.71090969717966
H            1.03435826965121        1.42789540414552       -0.50248474593846
H            2.69989787198433        3.11943606971282       -0.41379746620142
H            4.90671031073359        3.95551963881541        0.36847200974883
H            5.79465510999042        0.09157394717444        1.99962869071787
H            3.57963233240786       -0.74198651252103        1.22748713200766
H           -0.75792131867287       -4.63164632818583       -0.09509955916361
