29
 energy: -54.509008915770 gnorm: 0.000784619739 xtb: 6.5.1 (579679a)
C            4.79454996399001        0.63440180485993       -0.82948086982485
O            3.63442300740732       -0.02774162532451       -0.30443260192091
C            2.45277049998894        0.52779611694373       -0.61487286914543
O            2.36055996826151        1.51977251748256       -1.29729625528897
C            1.28962902753254       -0.19214552939168       -0.02529397054790
N            0.08824962342266        0.40424479552795       -0.32100861099934
C           -1.01048553219854       -0.09329744501675        0.13922288746260
C           -2.31831958206963        0.61898054258120       -0.17454217064791
C           -3.51319598795588       -0.33591642790027       -0.19864159835041
C           -2.52160130563043        1.71627459305887        0.88286266211888
N           -2.20766384428016        1.25428613366350       -1.48073602645818
N           -1.01397160700252       -1.20567804283523        0.92800377454145
C            0.11815836938978       -1.91270334258547        1.27948120903408
O            0.04186527949661       -2.91304138333576        1.97323753368142
C            1.35260293605170       -1.32710375334493        0.74419508342094
O            2.46577242561698       -1.98979122208462        1.08287140461364
H            4.82584808536068        1.66604621156952       -0.47190497965897
H            5.65943436698693        0.08159142227465       -0.47064098688869
H            4.76319573216595        0.62688382924592       -1.92112193240437
H           -3.30861584546198       -1.18780582175617       -0.84565471489209
H           -4.38259382014745        0.19478191463396       -0.58483827221090
H           -3.74743183290427       -0.69661987428352        0.80166770475268
H           -2.62678889885170        1.27445590597062        1.87243113498003
H           -3.42078468411305        2.28331571848858        0.64575795424171
H           -1.66671139300664        2.39179333641060        0.88546588001604
H           -1.33735461088212        1.77747951106452       -1.51361523417892
H           -2.15820383617856        0.53749963082185       -2.19310705648029
H           -1.88277079865701       -1.56965754686793        1.28940412718251
H            3.26943429366690       -1.57631696987174        0.72258479385162
