43
 energy: -83.892753748487 gnorm: 0.000218379259 xtb: 6.5.1 (579679a)
C           -6.06158909265898       -1.85150788838884        1.16365252691668
O           -4.82292476051531       -1.21541024240355        0.84419996805041
C           -4.75582217127386       -0.61441833337868       -0.34110887726434
O           -5.68754909684662       -0.61492022720095       -1.13212688406830
C           -3.46992989932817        0.06167087275551       -0.60195517898936
N           -2.49656815364414       -0.04713150926171        0.35884144265967
C           -1.36630074408397        0.54835834672293        0.16108640668192
C           -0.27299342559239        0.51577056605991        1.20650129011179
C           -0.37404708594108        1.80181544676282        2.03886220077314
C           -0.43499226686371       -0.71537490667393        2.10790459663679
N            1.00573762345638        0.52893493052752        0.51256486828460
C            1.26303441790379       -0.54984638153487       -0.37181939147309
O            0.31693975472719       -1.22812596941824       -0.82420187654348
C            2.61837900698690       -0.69988735537045       -0.71162997600675
N            3.14419640115947       -1.57523125252525       -1.56244620418057
N            4.42610049072336       -1.42620242390170       -1.65187594455254
C            4.81558500852939       -0.32057520740969       -0.76311451203314
C            5.44215378117986        0.81341917319883       -1.59012418120890
C            5.79511057761056       -0.83060416803933        0.30401565818393
O            3.61067529556381        0.12611954419547       -0.15416539971108
N           -1.13216968913727        1.31679873376906       -0.93961097870165
C           -2.01595923623726        1.48723325156866       -1.98008078851070
O           -1.73165076128664        2.17960221190000       -2.94828141598298
C           -3.27746080388143        0.77722917337516       -1.76277626064473
O           -4.19562810685936        0.89315477535395       -2.73294856601598
H           -6.25607321764971       -2.67067112351611        0.46734214779449
H           -5.96540288598599       -2.23234608007602        2.17817968663270
H           -6.87953611934906       -1.12976222722951        1.10605770709668
H            0.39083660589274        1.80171960088747        2.81308044582623
H           -1.35325237637093        1.86594628819519        2.51074280316549
H           -0.22851340433060        2.67269561883893        1.40181128298273
H           -0.41042345688859       -1.62569745529964        1.50945576763964
H           -1.39086552375592       -0.66258671013890        2.62719877457563
H            0.36826763594034       -0.74439293361920        2.84139161969033
H            1.78817339416329        0.78072556104870        1.10020142732087
H            5.68808550667789        1.65434072267477       -0.94462166709938
H            4.73194028425092        1.14253406599044       -2.34721297754646
H            6.34610990498888        0.45692597639911       -2.08002271184686
H            6.07383064071493       -0.02058885839163        0.97509171364998
H            5.31961978928564       -1.62226390774205        0.88047953448140
H            6.68838874257409       -1.22539057983841       -0.17604708679121
H           -0.23603769441306        1.78317791525576       -1.00959337523397
H           -5.01747188943092        0.41476396588950       -2.48289761474208
