43
 energy: -83.852775268992 gnorm: 0.000362573149 xtb: 6.5.1 (579679a)
C           -4.37557827029554        4.02907479512619        0.98376848885358
O           -3.38652548098902        3.08575939826594        0.61886735928919
C           -3.70248409861807        1.75728804670020        0.91152955307845
O           -4.80344986057735        1.50567436757684        1.48366465587979
C           -2.75218421347418        0.81625281292433        0.54889937838154
C           -2.98663163383984       -0.61117892393980        0.77548548275782
O           -4.18968670107130       -0.99033240021851        1.30692560346271
C           -2.05446751795691       -1.50380065985667        0.40416128646360
O           -2.10502610227757       -2.88720743596696        0.49065638253921
C           -3.31554450920624       -3.50667136261647        0.08146825485198
N           -0.77701974143758       -1.05613059398462       -0.08148537488051
C           -0.71587761028032        0.31015695734605       -0.44358330576587
C            0.54063404778865        0.71646616124555       -1.19285037653182
C            0.45813515265958        0.23583806670344       -2.65047644673852
C            0.71269663624129        2.23812249218306       -1.13503570736235
N            1.67011173244572        0.05981901299109       -0.52070555165754
C            2.95511449874680        0.17058112149931       -0.90873244521004
O            3.36518337338398        0.86014402850431       -1.83542297307597
C            3.84358357794690       -0.64502202970517       -0.04881375982759
N            3.48120250642458       -1.35699049721910        0.98198008424208
N            4.61484854760172       -1.93297114223799        1.47964154888659
C            5.59284258141242       -1.53872420611488        0.72543325723457
C            7.02586728833652       -1.88872140636664        0.84968534495003
O            5.17668760789730       -0.72271638067707       -0.25700511980081
N           -1.58163933129447        1.18575543371320       -0.12624918649911
H           -4.00382932575215        5.01435837619907        0.69690762355935
H           -5.32228724975865        3.83435854668841        0.46481810151065
H           -4.56260732604846        4.01354497383795        2.06471009966445
H           -4.68463932906567       -0.12757021091385        1.48319629860887
H           -4.10179821760916       -3.38724123203389        0.83712784812772
H           -3.67134434566368       -3.09425920277333       -0.87031763513208
H           -3.10067092607812       -4.56983789336481       -0.04592613124916
H           -0.39343451437314       -1.69035289804301       -0.76982080626519
H           -0.42522995439830        0.66436293842876       -3.12176285417723
H            0.38543604382292       -0.84991640267863       -2.68457679000458
H            1.34177590699176        0.54644029250962       -3.20561298027710
H            0.82644093775716        2.56039623116159       -0.10022064010913
H            1.58583590982428        2.54799445741705       -1.70586035019439
H           -0.17447248796241        2.71314611214543       -1.55256705788197
H            1.45118513726055       -0.58530054563997        0.22774354099972
H            7.62046145865670       -0.98668095161959        0.99298973238123
H            7.37149117868574       -2.37843765852166       -0.06043089801102
H            7.16689462415650       -2.55547058867042        1.69658046494888
