42
 energy: -83.583559511311 gnorm: 0.000794069643 xtb: 6.5.1 (579679a)
C           -2.99942781995897        3.37872008967042       -0.80288557259716
O           -2.49874581142442        2.07527152379839       -0.58720143099069
C           -3.45928798281842        1.15402900109658       -0.10543364946284
O           -4.61668726205259        1.57217520925401        0.11141586612935
C           -2.97906255177406       -0.15652699409127        0.06145843540426
C           -3.72113705955031       -1.21304549708125        0.65303605281950
O           -5.08513930257988       -1.09650227257275        0.85535383002217
C           -3.12991511240064       -2.40607544236652        1.09331695809350
O           -3.80275033910332       -3.35346485937288        1.60746739637446
N           -1.72856270645568       -2.49520299151399        0.98707396665862
C           -1.06121704037679       -1.61827851001719        0.31765171839820
C            0.45019852632704       -1.87354582869680        0.24231278691305
C            0.91873376621512       -2.39905888268536        1.61454250963221
C            0.71136714426204       -2.94982509529586       -0.82488254145889
N            1.14207027704807       -0.62516582524811       -0.07128726570138
C            2.54905394381296       -0.57351392191701       -0.09346363275288
O            3.26694806730381       -1.56866752822618       -0.33865662600929
C            3.02041004766817        0.75204875096173        0.13292050419959
N            2.26573631143991        1.82197929323503        0.41941058659772
N            3.12822677634127        2.87107498657886        0.58347823292545
C            4.32557823771966        2.42066547390591        0.40044731835964
C            5.59175721637339        3.19176895435968        0.48270636841911
O            4.36049807840900        1.09611640136768        0.11252691235495
N           -1.60947898378604       -0.49444837994249       -0.26393940514555
C           -1.13500758170674       -0.04651878226462       -1.57888611655910
H           -3.36444964915873        3.82823100780276        0.12984494564371
H           -3.82280942593174        3.37595516424903       -1.52857615801929
H           -2.18114127692760        3.98468558439447       -1.19572881188536
H           -5.35673519977585       -1.93960544735686        1.26230499523086
H            1.97939242540992       -2.64343804940086        1.58052273084388
H            0.35629465479842       -3.29492303425628        1.87572406239289
H            0.75257900377564       -1.64384419034670        2.38279771822814
H            1.73599257825906       -3.31229290704481       -0.76754201987950
H            0.03267120791360       -3.78600765317980       -0.65677965420839
H            0.54092700533951       -2.55659831214175       -1.82597237390182
H            0.74772062835958        0.17133827263883        0.42392330338007
H            6.19047587671635        2.85502217875375        1.33009873331906
H            6.18239437392530        3.05174162597029       -0.42240537105495
H            5.36533761796718        4.24841135852830        0.60592039080228
H           -0.50892616816727       -0.81036380546838       -2.03697496598698
H           -1.99629831590910        0.13146458756187       -2.22593749813804
H           -0.55758517552435        0.87621474636385       -1.49814022939539
