42
 energy: -82.979455008186 gnorm: 0.000606793317 xtb: 6.5.1 (579679a)
C            6.72794948631994       -0.05758378129454        2.26616125177409
O            5.63432089318473        0.55396880807099        1.59488547648514
C            4.68170959471253       -0.28854020001680        1.12682307565986
O            4.78514413611426       -1.49929592732080        1.28470782576152
C            3.57239652958417        0.36432379746197        0.44496767765199
N            2.62962783658116       -0.53596540242023       -0.01520646176457
C            1.58835708194115       -0.13266672058297       -0.63776430332630
C            0.58320262162274       -1.12662811574363       -1.17766089740374
C            0.80306171334070       -2.49501399999528       -0.52841328775234
C            0.71037529183776       -1.20408749350773       -2.70540774513621
N           -0.76504199077352       -0.62715910432784       -0.82487714165399
C           -1.89438608037093       -1.23672498022573       -1.18811504318902
O           -2.01334451365743       -2.26003248633991       -1.83209056409062
C           -3.12018540373232       -0.50292286051131       -0.70759109323769
N           -4.35869729374318       -0.84913016090948       -0.88908291702584
N           -5.08024174015125        0.11470106484350       -0.28832727932935
C           -6.52694242061728        0.05008752410527       -0.28837877354812
C           -4.27964705680890        1.01665830425262        0.23975199284818
C           -4.62520404689313        2.23098742414443        0.99501196991803
O           -3.03867641377602        0.64950365977664       -0.01077432487931
N            1.36342145884154        1.20703063058582       -0.89923927951280
C            2.20625800820654        2.21165398425469       -0.48649907778728
O            1.92640051879793        3.37906487146646       -0.73962941469119
C            3.44588433959768        1.76662445768929        0.26034788243243
O            4.24483968292331        2.63567866947776        0.64968486092566
H            7.26258015912557       -0.73801163458727        1.59583700966228
H            6.37987958616669       -0.62191108699130        3.13686094099188
H            7.39364661730611        0.74297320338113        2.58720144628062
H            0.63221045562306       -2.42666514871882        0.54471594025860
H            1.83273087579303       -2.80703332732640       -0.70029428462965
H            0.12660592627965       -3.23292158655855       -0.95392558469991
H            0.01558076575707       -1.93526445750537       -3.11293046128615
H            0.49977993143244       -0.23143089473645       -3.14599372330349
H            1.72683520334095       -1.49955807175106       -2.96334351913632
H           -0.83101984658951        0.20184822220945       -0.25801248831994
H           -6.82316020351000       -0.80111865098862       -0.89585455240763
H           -6.92143853560217        0.97516193384517       -0.70449250372524
H           -6.87560834166661       -0.07128953699624        0.73576491447734
H           -4.97632212094145        1.95441594774170        1.99188143756616
H           -5.43085154414882        2.76717597019912        0.49345569473293
H           -3.74724655734302        2.86796539933903        1.08851726080410
H            0.53521739589669        1.49113275650811       -1.39074193639483
