42
 energy: -82.955954782777 gnorm: 0.000520225043 xtb: 6.5.1 (579679a)
C            5.87910607289022        2.27531512636838        0.98804268109793
O            4.86103665114199        1.96867397081299        0.04046548829886
C            3.87805231264031        1.15511332236973        0.47091527233395
O            3.87223442214631        0.70594120629009        1.60750570590204
C            2.83818222370336        0.87707551898646       -0.52213630860432
N            1.89730707490699       -0.00460270698640       -0.06090590956273
C            0.88971028127576       -0.35227895944130       -0.78482744301613
C           -0.10325011186926       -1.32664992772265       -0.20935999100908
C           -0.99825747882625       -1.97034099258904       -1.26102539545029
C            0.61617003383103       -2.38045908386260        0.62488947477398
N           -1.04444779192407       -0.48040665564433        0.71175370798802
C           -0.36842565236746        0.09233702250637        1.90744245559505
C           -2.23237260766291       -1.26867648921713        1.16923269494153
O           -2.10659910861963       -2.10940863087143        2.01342931984683
C           -3.45179179049803       -0.86985598198863        0.51424905344727
N           -4.66113095739781       -1.32035971903556        0.72970640675740
N           -5.48271229813155       -0.64091730486948       -0.08615972725788
C           -4.74729170889068        0.19646804189947       -0.76782202838643
C           -5.19301856184211        1.15765734412350       -1.79304577682945
O           -3.45482426892203        0.09969906934964       -0.43222295866323
N            0.69678594570359        0.16871531072275       -2.04578826200446
C            1.56913545725223        1.05046759865232       -2.64749426502577
O            1.33444767240997        1.45696123956970       -3.77635035368858
C            2.77373775659920        1.45503893279486       -1.82276967892089
O            3.59061615455941        2.24516300871673       -2.31159252856813
H            5.44944065574795        2.76823310146561        1.86490008632481
H            6.39136388946077        1.36347410435624        1.30886814182230
H            6.58299813174122        2.94307951621302        0.49297862891775
H           -1.65339427850397       -1.23501196860747       -1.72351438480814
H           -1.61247058506278       -2.74850485060495       -0.81090001600741
H           -0.37515157887838       -2.42422618583223       -2.03016634506880
H            1.32643154830174       -1.91304249995249        1.30543655232405
H            1.16774825709659       -3.02751028944358       -0.05630481975230
H           -0.08790263379899       -2.98737433355383        1.18812643022838
H           -1.38416793861268        0.28719696195592        0.13090116565495
H           -0.23307566422758       -0.69440364733299        2.64486069562199
H           -1.01177986199269        0.87401987013833        2.30183630025863
H            0.59326733854883        0.49995619705904        1.59711728942046
H           -4.79557634507006        0.86823718484236       -2.76649904518239
H           -4.81371310590255        2.15213364290683       -1.55928730928880
H           -6.27952579283900        1.17256194816408       -1.83535943521023
H           -0.11688975811646       -0.07949001270586       -2.57999656923754
