42
 energy: -82.970492764536 gnorm: 0.000756891795 xtb: 6.5.1 (579679a)
C           -3.61476276111486        3.36661960884915       -0.83637607066343
O           -3.31416216862706        1.97462603569655       -0.64017787083052
C           -2.07801357297128        1.59120854140647       -0.92564475687669
O           -1.22212517024552        2.30974255079076       -1.36924463437231
C           -1.85355460304254        0.13370468431318       -0.59217977697619
N           -0.66248366571539       -0.19999760363460       -0.27634243979997
C           -0.44989886838176       -1.52335967980604        0.14827738456274
C            0.80370758319233       -1.73573819192739        0.96049398858379
C            1.24764792374720       -3.19912890635180        0.89681745104205
C            0.47786222849370       -1.30971652951295        2.40429244325962
N            1.83272427855379       -0.85383714702396        0.41252099867700
C            3.07992046434604       -0.77592228750013        0.91603196276092
O            3.52489525543379       -1.47137191373223        1.81496993399541
C            3.91026195847060        0.25213557801055        0.23815273305460
N            5.16135594216792        0.51910247985478        0.45191471078391
N            5.50108424548624        1.52436902469088       -0.40243694676426
C            4.43626718959526        1.81072374727628       -1.08493086285676
C            4.28901324223851        2.83512031616978       -2.14128248727778
O            3.39399310894178        1.04153376536727       -0.72903348814295
N           -1.24906938467197       -2.48813040874716       -0.08624838643461
C           -2.44251012087764       -2.24565647399641       -0.79184968750226
O           -2.95684114824326       -3.08332438840324       -1.47918599542881
C           -3.01398070316574       -0.84948601277556       -0.53588249467965
C           -3.58457655484506       -0.80526107323670        0.90099804548029
O           -4.00434861876200       -0.59527408941615       -1.48644270719707
H           -3.44521180845668        3.63724977184029       -1.88004341879722
H           -2.97497392660156        3.97159678697404       -0.19153225507090
H           -4.65986772033880        3.49622610689912       -0.56859360526495
H            2.08880687698251       -3.36824294776487        1.56567717010519
H            1.53984608713664       -3.45405959250947       -0.12086522745069
H            0.41840743848375       -3.83688082078994        1.19829989638362
H           -0.32886160710066       -1.92739636234855        2.79431781901578
H            1.35955992094530       -1.43280987068814        3.03070334855276
H            0.16961455327528       -0.26591027554556        2.41893576292230
H            1.52848113676461       -0.16373342172061       -0.26010698445806
H            5.25239875253653        3.30028953348829       -2.33568088786248
H            3.57573455908679        3.59622943340866       -1.82520885698342
H            3.91070479888037        2.37693497842568       -3.05448320988945
H           -2.81505515953249       -1.06605908740850        1.62396696918572
H           -4.40973264563193       -1.51146084755763        0.97032245920490
H           -3.95229067000313        0.19677600644900        1.10813332660294
H           -4.46996466650409        0.22856898250181       -1.29114135259452
