42
 energy: -83.601805295551 gnorm: 0.000507186278 xtb: 6.5.1 (579679a)
C           -4.05436799398020        2.84419335158253       -1.71819045364619
O           -3.53799949126306        2.25111356780418       -0.53506932887885
C           -2.59712610568230        1.28069707245659       -0.70882278411013
O           -2.20027759347674        0.98624830077481       -1.82619025757825
C           -2.27824326452376        0.52937846091586        0.59478850853650
C           -2.29935819594320        1.48547978778184        1.80372855565781
N           -0.97361651356945       -0.09798150592750        0.49650024520808
C           -0.93401241732908       -1.37699291258517        0.20384357137097
C            0.47549778417126       -1.98199110589150        0.06758708107099
C            0.56763246520171       -2.78122699690906       -1.23948472948461
C            0.72441225806098       -2.90131475789081        1.27431447662662
N            1.43812207760902       -0.88630438277061        0.06078286642023
C            2.77660421858684       -1.01826045166834       -0.03038969983756
O            3.37743342079068       -2.09433828537309       -0.16319700895521
C            3.45386351427639        0.28082834243327        0.02600495935288
N            2.87742085447947        1.45872237195042        0.14234963326254
N            3.88047008760974        2.38830649222065        0.14270647049009
C            4.99420650073430        1.73986584929635        0.02882967155479
C            6.36214354450243        2.30832343345120       -0.02030964007286
O            4.81154236037544        0.40634474427714       -0.05140396623624
N           -1.90462078391664       -2.26411519437940        0.04326341915374
C           -3.21143138659903       -1.82688453896406        0.28968150173186
O           -4.18902881862786       -2.64420849473120        0.27665030713298
C           -3.38349799866323       -0.48007616377167        0.60937658946115
O           -4.68067825538481       -0.02112396978517        0.92739799522866
H           -4.55852420988689        2.09840194101178       -2.34158219111445
H           -3.25164052730373        3.30684848630392       -2.30217262852966
H           -4.76776217935944        3.60743181376976       -1.41015629871048
H           -2.03074225029659        0.92989949864190        2.70187046382295
H           -1.57734680839459        2.28923570907863        1.65995562983712
H           -3.29094487232312        1.91586140654781        1.93610673566485
H            1.50822438206780       -3.32762480750152       -1.29948480996981
H            0.49402660155445       -2.11053857635093       -2.09650839103420
H           -0.26019661721075       -3.49087141727873       -1.27530444207667
H            1.68009206167811       -3.41695076954818        1.18470985894500
H            0.72382917327392       -2.31748827825339        2.19514060495995
H           -0.07627296640438       -3.63999139588012        1.32452573351388
H            1.03624863630414        0.03545275495467        0.23835613079915
H            6.96624605816137        1.91238821378207        0.79563884499305
H            6.84854625251523        2.04171417257007       -0.95851866843504
H            6.30861580439498        3.39088647053670        0.06309170566257
H           -5.24748880621422       -0.80933523667961        0.85619173821403
