20
 energy: -37.645738221595 gnorm: 0.000427738381 xtb: 6.5.1 (579679a)
C            4.06604728966814       -0.62976948780860        0.35890156356447
O            2.63259117938619       -0.60835802859387        0.21800695291560
C            2.04832639383917        0.56313156818467        0.22376726594681
O            2.57629915991916        1.63432801227221        0.33250424107532
C            0.55473646310713        0.42460581021066        0.07216866035348
N           -0.31466982023426        1.38840917741951        0.04424070706365
N           -1.50135591481440        0.77854088200786       -0.10647793316954
C           -2.72036711655340        1.55955491585770       -0.16239832074720
C           -1.33293044775085       -0.52864066367184       -0.16455391034381
C           -2.34354093927590       -1.58542824455838       -0.32250871325325
O           -0.04512364849530       -0.77326972041828       -0.05514608948270
H            4.52262067242987       -0.12102228285613       -0.49150049558954
H            4.35011864772705       -1.67901168869341        0.38058130082487
H            4.34891876434022       -0.12970199557588        1.28657048387056
H           -3.19156125489205        1.54660003713402        0.82000184060410
H           -2.45553290962554        2.57679054856753       -0.44059694775107
H           -3.38565657461761        1.11640887964205       -0.89956681701318
H           -3.09180123847005       -1.50553312213160        0.46712334295176
H           -1.86117921946179       -2.56019998545810       -0.28200007529649
H           -2.85593948622580       -1.46743261153006       -1.27911605652365
