43
 energy: -83.189490451030 gnorm: 0.000495563432 xtb: 6.5.1 (579679a)
C            6.58308223934776       -1.18422661140197       -0.88652844982376
O            5.34094118125402       -1.16796642633468       -0.17560028134271
C            4.44440717822307       -0.26713069395204       -0.56618913094638
O            4.63498306420814        0.51212688041322       -1.47184519150860
C            3.17833167137609       -0.30731735625741        0.22691885389368
N            2.25740190718364        0.63687205720206       -0.16723167809305
C            1.12487643053871        0.71827023056897        0.43369856094011
C            0.12921159449803        1.78534509377696        0.03427803517164
C            0.19294640130604        2.93707515461556        1.04104273689052
C            0.40681720963930        2.27430970047342       -1.38883757335485
N           -1.22786131762121        1.21238302608337        0.10302236682501
C           -1.55068656819801        0.09743906832642       -0.55750650124640
O           -0.80333002256316       -0.60921436160402       -1.20262461077980
C           -3.00594103683628       -0.25300337102130       -0.41313984634329
O           -3.84873680439514        0.46058501824798        0.31768776272612
C           -5.04453778091475       -0.14436880068739        0.20737046027895
C           -6.22464885141182        0.38400222507172        0.90997109417954
N           -4.96491777882950       -1.19171829741432       -0.56097870686960
N           -3.67700884708397       -1.24762813360598       -0.94483078494936
C           -3.24975845501192       -2.32240832735202       -1.81698925954748
N            0.78836895244344       -0.08870017548641        1.48473937625252
C            1.61214691986401       -1.08460294868526        1.95029131810356
O            1.30036931224438       -1.82491210208195        2.87010242671902
C            2.89389519311394       -1.17034578332455        1.25027255259124
O            3.72163682109515       -2.12378783378560        1.68798143171462
H            6.41237521362414       -1.45287735660167       -1.93176748626635
H            7.05605462168413       -0.20042318472343       -0.83819591949883
H            7.20930683586448       -1.93061086917452       -0.40157894395325
H           -0.52988655513896        3.70483697598894        0.77204790066564
H           -0.02909628461872        2.57444408540688        2.04259990444242
H            1.19183659483567        3.37170084421385        1.03463223287654
H            0.35585529224416        1.44228614041688       -2.08931300418820
H           -0.32674586578611        3.02707066518179       -1.66822560673665
H            1.40562069413759        2.70761944757653       -1.42758391971056
H           -1.94592953745640        1.73530397523354        0.57434877772204
H           -6.06029798005584        0.33033714316949        1.98736469902973
H           -6.36796177557428        1.43300384459883        0.64886931657349
H           -7.10623095264077       -0.19380057764088        0.64135603672417
H           -3.94952650349850       -2.38020312263953       -2.64887047890709
H           -2.24127458734576       -2.11432409585770       -2.16543840864446
H           -3.27514127877786       -3.25245379335575       -1.24967732487244
H           -0.10567170626556        0.01821409961645        1.93441921856831
H            3.29472616131087       -2.60539345318326        2.41994004470233
