43
 energy: -83.869605261886 gnorm: 0.000477739448 xtb: 6.5.1 (579679a)
C            5.42724425979436        2.53026784326698        0.58230457143986
O            4.30268538256546        1.67838719408204        0.38091806646007
C            4.39131849625442        0.44705324161946        0.92042741884683
O            5.38466435892584        0.08789662917234        1.55450890342797
C            3.23131505080079       -0.39694428669140        0.68136555538630
N            2.18977264362860        0.13750563665519       -0.04494699318039
C            1.15284552400494       -0.59191674830701       -0.28469735119857
C            0.01737359806675       -0.00984898672254       -1.11637078218955
C            0.30428862100310        1.46910708356156       -1.38950546952819
C           -0.09541389298736       -0.77008860101772       -2.44570871062056
N           -1.24735409487687       -0.06335230276242       -0.37862159644665
C           -2.01580696477472       -1.14605986207197       -0.16262039633647
O           -1.70117596303337       -2.29399372938658       -0.47473975169391
C           -3.40162670644650       -0.83305460582033        0.44508399264990
C           -3.72529611618259       -1.83413501886588        1.56382842918207
N           -4.36246377042476       -0.92494925504307       -0.65426383780214
N           -4.92227320478988        0.30101301070846       -0.76628451116859
C           -4.42838926460891        1.09698829004157        0.11310226332219
C           -4.76954313197568        2.52438505042241        0.34166814335892
O           -3.46360212450799        0.50508483972349        0.92107723426474
N            1.04926531342487       -1.87934841584724        0.14761559632400
C            2.02389076490937       -2.53109507678417        0.89788474353536
O            1.85199505500314       -3.69404831364121        1.25984333583822
C            3.17824076265884       -1.70272100046686        1.16170074114210
O            4.17865670904513       -2.25741623835549        1.87875822425241
H            5.19289634861827        3.47929052296218        0.10323769651024
H            6.32209735843602        2.09281120334918        0.13087580231773
H            5.60498806972471        2.68269202904251        1.65041442418181
H           -0.50576169908407        1.90386888188478       -1.97219898857338
H            1.23598277733874        1.56860905689907       -1.94369815139176
H            0.40242684524567        2.01372095419676       -0.45149255803062
H           -0.23820662768634       -1.83619856254077       -2.28031445282853
H            0.81875422599049       -0.62413988624163       -3.01905305670441
H           -0.93758544194144       -0.38427355340444       -3.01849846744815
H           -1.57753236885009        0.81732353300749       -0.01161440580498
H           -3.60030738319991       -2.84641541160248        1.18360286795763
H           -4.75503519342000       -1.69148823675217        1.88457856725577
H           -3.05962525801902       -1.67559577554961        2.41045542121621
H           -5.57189486680603        2.81539789721931       -0.33357163775346
H           -3.90362290840654        3.16436475860661        0.16173100370158
H           -5.09211805520731        2.68143437211282        1.37232927894967
H            0.20791306771946       -2.40941349847766       -0.07471322640081
H            4.90601880408220       -1.60070666217427        1.98182906360076
