42
 energy: -82.974353515339 gnorm: 0.000367088562 xtb: 6.5.1 (579679a)
C           -3.82938003405359       -1.60275115632939       -0.88207414201297
O           -4.58100616291399       -0.49406645932779       -0.37194577547435
C           -4.08130618168693        0.59977663672284        0.12305410778992
O           -4.95427908095484        1.47195905571268        0.52701314387927
C           -6.35514986587311        1.18671798260487        0.41389130730732
C           -2.69522270081231        0.92141416905931        0.26270293850191
N           -1.77142842370019       -0.00800216070911       -0.15224091717363
C           -0.49579904345867        0.28410632918363       -0.00911041814194
C            0.47867182608684       -0.77936859989728       -0.49681509928623
C            0.35541005400809       -0.90049057373433       -2.02286789121468
C            0.16819936590885       -2.11795153151828        0.18527739813109
N            1.82287234009923       -0.34030300528985       -0.14026824270814
C            2.94123308394804       -1.03106331943363       -0.39949801679557
O            3.00129458834519       -2.11048589653062       -0.96927644374612
C            4.14374288919479       -0.31211647455464        0.10743490138017
N            4.15748859388147        0.84414097374153        0.69794872764099
N            5.45963506010369        1.11758274794419        0.99843026444447
C            6.15610117269519        0.10924722840307        0.57212320232667
C            7.62096078154147       -0.07947607561095        0.66380317658603
O            5.38359932030533       -0.82604242084444       -0.00098109566409
N            0.02641963517008        1.40105467842489        0.49460663594748
C           -0.80001153873539        2.37664096305882        0.92197263141757
O           -0.44951554712974        3.46137865393596        1.40454904415845
C           -2.24872237068557        2.11872928692365        0.80030323013524
O           -3.02830452688982        3.09820412259790        1.23692458801566
H           -3.21789428681691       -2.03672926225318       -0.09067501223750
H           -3.18981821975155       -1.28020800410141       -1.70377503860112
H           -4.57095862994280       -2.32038822654027       -1.23089029283480
H           -6.59975248319208        0.29817165453063        0.99768349162760
H           -6.61610399518395        1.02180151986215       -0.63228326060342
H           -6.87166493433188        2.05970887001815        0.80677170624254
H            0.62660842961137        0.04335047795988       -2.49442472585277
H            1.00846592065898       -1.68817738619098       -2.39526458619875
H           -0.67514122217564       -1.14055169285143       -2.27843223211586
H            0.81987752947797       -2.90079109157834       -0.19894749908080
H            0.30854852066926       -2.03024676876057        1.26187134449709
H           -0.86672901825391       -2.38818608161519       -0.01438784199797
H            1.88021147776599        0.56036684521591        0.33027886689027
H            7.84549039621198       -0.97375743093114        1.24495627613052
H            8.04381687583889       -0.20962228446750       -0.33201420672750
H            8.07140761617295        0.78693014188856        1.14163614447232
H           -2.42186521115502        3.80949356528370        1.55615061093661
