16
 energy: -33.392178910436 gnorm: 0.000888420009 xtb: 6.5.1 (579679a)
C            2.61930922712736        0.32889089695749       -0.61280619586020
C            1.32158120133695        0.07717774569279       -0.00746190282212
N            1.11428512002410       -0.33314132536345        1.28984621244802
N           -0.12677194972159       -0.46862234199694        1.45821717347458
C           -0.81646859377622       -0.11868361481937        0.27286524134593
C           -1.74199530353845       -1.20049666305533       -0.28452520774043
C           -1.72067730708893        1.14288731191313        0.66520743831946
O           -2.65985046452885        0.95094637529352        1.35739441620010
Cl          -1.22341710582986        2.61059759701183        0.02925830325344
O            0.20805850515578        0.21191098235273       -0.62928260496771
H            3.21432095377185       -0.58789815279000       -0.56456662155410
H            3.15697602672222        1.07328417585349       -0.01939660811219
H            2.51432807120038        0.66038123153173       -1.64307540095377
H           -2.51620633310793       -1.40842085528780        0.45132010831372
H           -2.18855123444893       -0.84383795571538       -1.20981756132986
H           -1.15492181329783       -2.09497640757836       -0.47967179001483
