43
 energy: -83.887335055435 gnorm: 0.000862962454 xtb: 6.5.1 (579679a)
C           -4.09338657678944        1.47517394984866       -3.21797904781382
O           -3.88676399006103        0.87355715907619       -1.94454428611589
C           -2.61255045866683        0.78220757265171       -1.52766719852632
O           -1.69449091396578        1.19316698784892       -2.21371926433400
C           -2.43829003130716        0.14502699919555       -0.19132743416298
C           -3.49084350408894       -0.32974994325748        0.58849641365530
O           -4.83599912379733       -0.15993278026159        0.25702572778150
C           -3.22739245787303       -1.09049297672417        1.76075861054019
O           -4.11089548200288       -1.59989332842985        2.47469156766294
N           -1.88258894046651       -1.33627588857296        2.02218390755691
C           -0.87191973994226       -0.41835669003951        1.50740274349660
C           -0.76183732599800        0.80963242122551        2.44483541505362
C            0.48978166670779       -1.18416707948533        1.41114661845245
C            0.28380544356518       -2.47960553493769        0.61397107610272
C            1.10705061531373       -1.48490714877386        2.77842036901284
N            1.36499273680258       -0.29691918348959        0.63971764733087
C            2.65686940857560       -0.51832880268655        0.37706668066595
O            3.35734266902034       -1.39988193750122        0.85696947251610
C            3.18490283972848        0.48765385262448       -0.59225745975618
N            2.50742455045123        1.43059020472512       -1.17217359861210
N            3.37650225002965        2.09694484380757       -1.98794863805152
C            4.52695405910322        1.51485421153012       -1.85345701654656
C            5.79891710450072        1.86148666914446       -2.52606984714044
O            4.47352210840997        0.49092977164938       -0.98763210276309
N           -1.16187393219909        0.05270729430825        0.17280544941894
H           -3.76701047804948        2.51958974351218       -3.20572002002814
H           -5.16139169145546        1.42301138933240       -3.42537986529037
H           -3.53556308020650        0.93858952128864       -3.99151611587513
H           -5.34125121991172       -0.60691660437775        0.95580655255885
H           -1.71298551875292       -1.65937657111874        2.96317584772618
H           -0.63944235007522        0.49772041447586        3.47983765986683
H            0.08543404535495        1.42667736218713        2.15064032497128
H           -1.67326545693201        1.40114527285198        2.36505461850820
H           -0.38293637599327       -3.14434792243042        1.16140019654804
H           -0.16462003189767       -2.24702525314411       -0.35272853421405
H            1.23640904092223       -2.98297834505696        0.45554806751702
H            1.95164447744733       -2.16462042148063        2.67345591020129
H            1.45923100061479       -0.57072168629404        3.25357557209798
H            0.36785638544122       -1.95580492523887        3.42436724702080
H            0.85805289767580        0.37844318722708        0.06423333065941
H            5.65435953739325        2.73761141802831       -3.15288561622778
H            6.13679310343374        1.02716475195788       -3.14036278995408
H            6.56945373993770        2.06641602480407       -1.78382419150751
