47
 energy: -80.192201848178 gnorm: 0.000720684760 xtb: 6.5.1 (579679a)
C            4.21430109929637        1.45346165194103        0.41894435235364
C            4.77161364696765        0.25823150693263       -0.40629855749154
C            5.62525106064118       -0.62273298480203        0.48159018628723
C            5.19156125534893       -1.84864193125496        0.85331383019291
F            5.97262043900289       -2.56297463167777        1.72278076890717
C            4.03269399625240       -2.48263228504691        0.38291786408058
C            3.30335038383226       -1.78868857184189       -0.60055898974350
C            3.64850406929107       -0.54248483331502       -1.04561651039507
C            2.85025278494489        0.12764281218836       -2.13583255324432
N            1.61749533310240        0.73134057264979       -1.59502751063090
C            0.46685062685631        0.02802496289118       -1.53282535253039
O            0.30331598411855       -1.03073485034861       -2.14689907138899
C           -0.62773738695479        0.61431042862759       -0.70816883779589
N           -1.76304762412579       -0.15522111177194       -0.67802837548679
C           -2.81267356616721        0.18146078269122       -0.00479665000638
C           -3.97424906211152       -0.80643543464635       -0.04572145158685
C           -3.88879064233798       -1.72508840369230        1.18254390157870
C           -3.86310982747482       -1.65683710052006       -1.32310454268891
N           -5.25701854295145       -0.10751624305588       -0.03429237893401
N           -2.85527627309362        1.33361956223166        0.74928644791748
C           -4.00408225844644        1.73471292052032        1.55711257753624
C           -1.77927901782008        2.21717122378915        0.74332011127747
O           -1.80488308578742        3.28727686581523        1.36785277044958
C           -0.63200725760017        1.80416839068616       -0.01473369731077
O            0.41220135098767        2.67850349416204        0.01658659110108
H            5.03071134780458        1.97277131898601        0.92217719596467
H            3.70448736730321        2.16241660561350       -0.23323046665225
H            3.51061835537604        1.09476473834817        1.17067308058923
H            5.40418810486778        0.70471456459340       -1.19713683986048
H            6.54686155034644       -0.20846670284322        0.87112049941371
H            3.76712053999735       -3.47967307235875        0.70435537559513
H            2.45159685797658       -2.29111936141561       -1.05653270806771
H            2.54770690384454       -0.58714977208183       -2.91080465220239
H            3.42471656470201        0.93023329926667       -2.61203468392976
H            1.74932119934669        1.52317733074482       -0.98632537658180
H           -4.00706072967040       -1.15844403636528        2.10458907721429
H           -2.92330116830248       -2.23059717947934        1.20226321684239
H           -4.67709907050666       -2.47493112204717        1.13541926023696
H           -4.70365052116352       -2.34639662745208       -1.37278401358836
H           -2.93296352895263       -2.22517991740416       -1.32441976200403
H           -3.88186081262534       -1.01390681191977       -2.20226197549404
H           -5.42972841880343        0.30592236532176       -0.94131402909241
H           -5.99689172606470       -0.77181886554075        0.14018914539233
H           -4.78155640639723        2.15574591020523        0.92038077497037
H           -3.67144213170001        2.48969250085352        2.27028050737760
H           -4.40751443036278        0.88059505312832        2.09328169073116
H            0.12788466721013        3.44771498869734        0.54488376069238
