38
 energy: -79.626868839633 gnorm: 0.000146637060 xtb: 6.5.1 (579679a)
C           -5.70899749254218        0.18504175686487        1.72028862668713
O           -4.41069731965759       -0.07583710898151        1.20832658459715
C           -4.36234778485238       -0.50580840399857       -0.09166950361508
O           -5.39348444785733       -0.63349277372739       -0.73427533056269
C           -3.00651438041617       -0.76748558839033       -0.54139664195715
N           -2.01586694588841       -0.52677052118005        0.39487552082257
C           -0.78822262476196       -0.73562030643435        0.10349200862921
C            0.30677044275389       -0.51153332154997        1.12594660712086
C            0.77983569997428       -1.86142939605054        1.67428195832149
C           -0.20038485591837        0.38617904592520        2.25746754240496
N            1.45865329774333        0.11515102448500        0.46324337014465
C            1.36148228812734        1.27297816033417       -0.21892180412043
O            0.32825868878746        1.89304936809859       -0.41037237386295
C            2.66595898639865        1.72929445871050       -0.76817040951671
N            2.89127466557705        2.77253625822954       -1.50477799283928
N            4.22497700705301        2.77153973085823       -1.79142301755062
C            4.72984808212636        1.72785539355891       -1.21248956030947
C            6.13794222942153        1.27642299528565       -1.22206376328118
O            3.79739390622860        1.02455340570812       -0.54876206140382
N           -0.39555398823914       -1.22123537106088       -1.12723385173145
C           -1.26535593211703       -1.49331937647916       -2.15074085770620
O           -0.83598200092585       -1.92379417889468       -3.21913895295538
C           -2.72694261605078       -1.23457441513231       -1.85379720409929
O           -3.56394152642100       -1.44886753871156       -2.74924862901011
H           -6.33665424348556       -0.71040315230749        1.66355702272388
H           -6.19449994834909        0.99189441074521        1.16101059392025
H           -5.58772086834752        0.48190347273402        2.76117603071856
H           -0.05147415999068       -2.37350541121614        2.15692894258894
H            1.15708051121846       -2.48515037123194        0.86573306666892
H            1.57357625541451       -1.71326844505072        2.40389359674876
H            0.59347112395299        0.55542307792525        2.98154873330902
H           -1.04075425917612       -0.10114167322374        2.75026767691441
H           -0.53496500741347        1.34338778357071        1.85868685873013
H            2.36767767259795       -0.27475156076955        0.63426840510158
H            6.52037311028010        1.22975074422308       -0.20296519213029
H            6.74051733767343        1.96668796621177       -1.80706264045935
H            6.20494902818727        0.27690770506528       -1.65110073835089
H            0.58032006889262       -1.40256884415344       -1.29096462067746
