42
 energy: -82.941154631766 gnorm: 0.000689100657 xtb: 6.5.1 (579679a)
C           -6.84509193357504       -0.67285720332724       -1.07127039138225
O           -5.62872124021759       -0.92658539777532       -0.36708485386329
C           -4.66295377207567       -0.01786219807889       -0.50906627474989
O           -4.79516528606803        0.98093274640765       -1.18759029752697
C           -3.41588356155791       -0.33740241486835        0.23232902545549
N           -2.45385529587484        0.59819016677519        0.08084186730063
C           -1.29421299543919        0.46546460172943        0.65355395846768
C           -0.25773094101059        1.55251606306320        0.50112689210804
C           -0.25793306817250        2.38650929495321        1.79341095454821
C           -0.57222472534761        2.42153864989724       -0.72050413834850
N            1.04799973596351        0.90470295492118        0.32244525124389
C            2.20719091761687        1.59188562315322        0.23838723402651
O            2.34503507487534        2.79498479631441        0.37048321211675
C            3.36357884556781        0.70186302311786       -0.04270557655634
N            4.63573191904249        1.10765378982727       -0.17904853458084
N            5.36499939764151        0.08562290145510       -0.43789290840970
C            4.53698096705352       -1.08979597041574       -0.48599804587412
C            4.95101182827301       -2.08297691017099        0.60177776202083
C            4.56968270251338       -1.70785310689193       -1.88578381805185
O            3.22307154169526       -0.59281480177552       -0.21104402636391
N           -1.00138318940793       -0.59507216291049        1.45208050151099
C           -1.87720818534853       -1.63917627215382        1.70650591899800
O           -1.54082476611222       -2.55381607580480        2.43096465821107
C           -3.22853142183598       -1.52267139404325        1.02884952533263
O           -4.06055839554740       -2.41127108565460        1.19544001424855
H           -7.28635538642234        0.26888743847159       -0.73555568127844
H           -7.51373763300908       -1.50274017297397       -0.85084526544857
H           -6.65289550203456       -0.61625673747371       -2.14563587363196
H            0.43638188552535        3.21951552765799        1.70485590953169
H           -1.26042987917378        2.77572607951488        1.96735937295623
H            0.03511248238868        1.76306099139871        2.63630554750397
H            0.15973071916315        3.22210960161261       -0.80548041871613
H           -1.56674361307843        2.85140714228430       -0.60893595746703
H           -0.54918387396176        1.81348881998086       -1.62319864080268
H            1.07058061572696       -0.07852502043240        0.10765776703750
H            4.90753073419537       -1.59398930121969        1.57239004603327
H            5.96536191924270       -2.42250256558176        0.40774583740943
H            4.27004033981779       -2.93035229464599        0.58941933422312
H            4.24303872814079       -0.96821007482159       -2.61362356417402
H            5.58549179838239       -2.02195189936083       -2.11273574716356
H            3.90303740962683       -2.56621539027633       -1.91380793544648
H           -0.09996789720021       -0.65516576185392        1.89717935955310
