46
 energy: -86.349863843665 gnorm: 0.000553862271 xtb: 6.5.1 (579679a)
C           -6.33814686317070       -0.52688128988195       -1.01106824437950
O           -5.13421359829313       -0.00646597692117       -0.42490542504905
C           -4.03704516906254       -0.71489436298106       -0.58599321861264
O           -3.97595734476236       -1.75422843300606       -1.19707631615286
C           -2.85751373075099       -0.10559379865526        0.12421501150049
C           -2.97220477258120        0.65974421180555        1.24106962885982
O           -4.12798665446190        1.04501259671937        1.76727675527876
C           -1.77312956212032        1.11038872901842        1.93306428173391
O           -1.80696663055456        1.90112280587956        2.85347842476527
N           -0.57775311150141        0.52734074521744        1.50645856668716
C            0.55238162717714        1.04228833096160        2.29856938295789
C           -0.47713617801194       -0.27817325617445        0.42140663009856
C            0.76505871570305       -1.17805839821188        0.30884604719320
C            0.79189235563647       -2.24021523449929       -0.79944501329660
C            0.88527705161189       -1.95233557079569        1.63504109471895
N            1.93293059786236       -0.32801458872081        0.09790507419425
C            1.78398528291987        0.78286512636789       -0.65961582137270
O            0.67702166096457        1.21097571145789       -0.96751622348353
C            3.04636130621551        1.43968189685177       -1.01397502165182
N            3.23050965741495        2.54044635713859       -1.67645536608039
N            4.57122251455275        2.73530129613196       -1.74521746697655
C            5.13083369595512        1.74156024495011       -1.12182864146388
C            6.57224633515230        1.48778179922353       -0.91907462263623
O            4.21832679639423        0.88669975475864       -0.63560402764255
N           -1.58276539221436       -0.47677759787586       -0.31078914580108
C           -1.48981705198955       -0.80589713262424       -1.74630394840585
H           -7.10571995830596        0.22732563782414       -0.85153179186948
H           -6.18434599901130       -0.70285085047445       -2.07744354538922
H           -6.61077925490652       -1.46337954550666       -0.52071668306254
H           -3.96829043282078        1.59318789665155        2.55788037193955
H            0.38224534978794        0.78984627352408        3.34390979361535
H            1.49553768481476        0.64197149811509        1.95675961362926
H            0.54906024734422        2.12790885926707        2.19147422903707
H           -0.09704462676413       -2.86515400289461       -0.76777781513537
H            0.91703324377238       -1.80105597567279       -1.78488316365153
H            1.65848683028801       -2.87441156242972       -0.61560608723579
H            1.81488142602457       -2.51755523822774        1.62416788889954
H            0.05201068876138       -2.64920137868138        1.71202129508334
H            0.88408429334170       -1.31196925669752        2.51003683563582
H            2.84422695976296       -0.73449011504397        0.23404643910048
H            7.15438628664949        2.30688347179183       -1.33511319714738
H            6.78259544420449        1.38722286261431        0.14567796597485
H            6.85275737440475        0.55292863832196       -1.40450046191455
H           -2.27357396339995       -0.25705394677108       -2.26345485358717
H           -0.52908101947966       -0.46205418911424       -2.11388478632840
H           -1.62588311256098       -1.87081104273279       -1.91352644258260
