42
 energy: -83.634948961055 gnorm: 0.000413699309 xtb: 6.5.1 (579679a)
C           -5.81998692197153        0.91116201742305        1.96492950147318
O           -4.67538127426529        0.51532370456593        1.22742773543345
C           -4.81311106860503        0.54610375224792       -0.13860784427011
O           -5.87376569279725        0.89972416336141       -0.63562403204455
C           -3.61021569475434        0.12658133389473       -0.83059083997837
N           -2.54912673489041       -0.22704318846270       -0.01262683219103
C           -1.43960730631053       -0.61868835164817       -0.52219797552822
C           -0.29164358257785       -1.09856829197999        0.34940248123508
C           -0.37748177241285       -0.42829779751233        1.72956181518261
C           -0.45045820282121       -2.62487181710840        0.48125110443121
N            0.95030064581927       -0.76289902481688       -0.35115218433641
C            2.20281659773833       -1.01198367127973        0.35777249391659
O            2.31601622596883       -2.01452307642583        1.13300531987641
C            3.15651514611826       -0.05598464071144        0.16737995315907
O            3.06176919787174        1.00619204821015       -0.78294484755710
C            4.31862509209394        1.43762062398653       -0.92964640727121
C            4.57390441923088        2.57126147390692       -1.86334778040409
N            5.22635011732905        0.84464992941970       -0.25247207750484
N            4.57631607795644       -0.19465626662286        0.50621095199781
C            4.83585401610529        0.05929049894718        1.93243798502962
N           -1.26323800953661       -0.71802555922699       -1.88680834595964
C           -2.22050213281363       -0.40588454855933       -2.80930330838718
O           -1.97820284524913       -0.52194181337343       -4.01246128227155
C           -3.54318988183252        0.06555763787110       -2.24755612247995
O           -4.46070969525357        0.35840246063528       -3.04027958228442
H           -6.67135454770141        0.25790130555104        1.74582170631245
H           -6.10035953779955        1.94310201279925        1.72840839312600
H           -5.56391101774311        0.83530163941446        3.02104355789389
H            0.38444522552238       -0.83570315919055        2.39273178154492
H           -1.36141002848100       -0.60628439544304        2.16378795077781
H           -0.22861367065916        0.64717677293942        1.63396254029274
H           -0.27884369671316       -3.09783807220433       -0.48539178726325
H            0.25979629303504       -3.02832598081605        1.20062974172841
H           -1.46167476276787       -2.85946516246481        0.81555323581754
H            0.92618654426812        0.21630038537026       -0.62655281956813
H            4.27678806676176        2.30158523144864       -2.87672173573587
H            3.99203620657197        3.44120738162478       -1.56050821580305
H            5.63134327877957        2.82341853499003       -1.85262093266338
H            4.34694976151576       -0.73255135058002        2.49981380503249
H            4.44755807227171        1.03345004866781        2.24700929321251
H            5.91120847346564        0.02360474123572        2.10285471238524
H           -0.36198838047152       -1.02138253008391       -2.23126310635735
