46
 energy: -86.367290033845 gnorm: 0.000189257606 xtb: 6.5.1 (579679a)
C           -4.79798230377018        1.82807121361044       -3.06622935979476
O           -3.70651415166010        1.46975459775859       -2.20266287472715
C           -3.92884408129457        0.51586696273313       -1.32985289726589
O           -4.98135462585936       -0.08054456966789       -1.21436936246302
C           -2.75449818353984        0.21191635052871       -0.45494226938705
N           -1.61169283314226        0.87922592496135       -0.66262825080432
C           -0.55777592333735        0.66745135443763        0.07550737540206
C            0.67319840739678        1.48648270045134       -0.27349295188909
C            0.53487854060931        2.01852393594904       -1.70800712821656
C            0.82531619544012        2.65915064434813        0.70189664712837
N            1.86510685109643        0.64611500386493       -0.20970776329944
C            1.86038510747432       -0.58707778157199       -0.77151047327641
O            0.85804374188236       -1.11750121060075       -1.22304223680429
C            3.17843432539390       -1.24978978981209       -0.72131210217506
N            3.50789353691969       -2.41987904856139       -1.17301180294470
N            4.82004030527812       -2.60373483226577       -0.86568696286536
C            5.21356969901540       -1.53577564225560       -0.24184958947779
C            6.55423906112156       -1.24445027404949        0.30863308763256
O            4.22169899164088       -0.63876006630829       -0.11922204363520
N           -0.61557219321061       -0.20683024818247        1.13136682266619
C            0.47919615610619       -0.42269922532594        2.08271997562654
C           -1.71958742370772       -0.95187789922018        1.36013300503943
O           -1.60774674168336       -1.78223926945676        2.37135439153451
C           -2.65870822643801       -2.65794629891699        2.81304654414590
C           -2.85678271607001       -0.75649355393500        0.53689537675531
O           -3.95238489426322       -1.47541795780462        0.75191895026850
H           -5.09740712148886        0.96219597168565       -3.65966982732499
H           -5.64264083881591        2.16975978243203       -2.46538959761207
H           -4.43249474033665        2.62743330206312       -3.70663492410628
H            0.36627943170600        1.19287092098346       -2.39799264014462
H            1.45062312620072        2.53733183405216       -1.98317312046804
H           -0.30273681294775        2.71026608023090       -1.76925936167410
H            1.69368335308019        3.25132671272891        0.41918462253552
H           -0.06257482712764        3.28745991990915        0.65287931053608
H            0.95500321196506        2.31434639430652        1.72460718459809
H            2.73515308022712        1.07533527134139        0.05719734573373
H            7.20339972827808       -2.10691483506480        0.17541713351748
H            6.47208387543233       -1.00380089115444        1.36822657083278
H            6.98355215049934       -0.38020154282307       -0.19873679998978
H            1.28922157901055        0.26748784251498        1.89169868155837
H            0.08689459484558       -0.27169804343787        3.08667159736819
H            0.82835921351488       -1.44948660698938        1.98021075154851
H           -2.24001672015128       -3.19482336600563        3.66341287563277
H           -3.52859882662184       -2.07880197473901        3.12315408123104
H           -2.92966016660304       -3.35612822693455        2.02026272335180
H           -4.67067891206767       -1.20550356578505        0.12198928570207
