42
 energy: -83.650231600422 gnorm: 0.000424607938 xtb: 6.5.1 (579679a)
C            5.68776066318880        1.48201453038444        1.65137164987764
O            4.51799155246834        1.07912813985790        0.95949758798763
C            4.58416557368470        1.15940514381632       -0.41070511572805
O            5.60715041080046        1.56516084926267       -0.94655319877074
C            3.36320429760461        0.71983621394030       -1.05560050236598
N            2.35846947199419        0.29918014466390       -0.19797045147697
C            1.24251537256530       -0.12497112544230       -0.66867839792413
C            0.15529257128259       -0.66142882894415        0.25660577566109
C            0.59817330125427       -2.07920584026526        0.65514398374134
C            0.07994227629951        0.24736789303471        1.49635402340727
N           -1.09994255439290       -0.65897782421718       -0.50302162267336
C           -2.27827567419679       -1.44415548691485        0.11488172013804
C           -2.41721683850293       -2.73570356681388       -0.76297838491334
O           -2.23560231690134       -1.65531551478901        1.39861339927283
C           -3.52973609919667       -0.57987798274035       -0.25494789212207
N           -4.70179340179775       -1.02646401207652       -0.58786332493995
N           -5.55278782279420        0.06187955736142       -0.63317551546662
C           -4.83868023598840        1.08920253080230       -0.31748142572955
C           -5.28377027578442        2.50145926344536       -0.22711615428231
O           -3.55684982786759        0.76045177994427       -0.06512680571635
N            1.01022074290785       -0.19645477561531       -2.02342231280830
C            1.90076652956872        0.19032617691717       -2.98179315756406
O            1.60338443972940        0.10049688888963       -4.17585980391503
C            3.22584494896286        0.70693233424170       -2.46908884666343
O            4.08756895642566        1.07332727157974       -3.29455412604070
H            5.48329879452740        1.37842318274488        2.71649284769733
H            5.93750207788610        2.52419552334504        1.42534396757628
H            6.54050963770237        0.85093216478904        1.37858237624157
H            0.64851101361876       -2.71949948316590       -0.22583143037059
H           -0.09056273252635       -2.51587605611955        1.37709758826097
H            1.59138815704514       -2.03020031476294        1.10390058263476
H            1.06292361858657        0.31148164044996        1.96490149882630
H           -0.23266953746981        1.25022414094683        1.20426975724780
H           -0.63669028772209       -0.14915439885776        2.21389786937982
H           -1.39643913125982        0.31366804000966       -0.56822378398634
H           -1.58637626237277       -3.40610112477494       -0.55483035820214
H           -3.34883593005011       -3.23855601380561       -0.50531539627029
H           -2.42126511487250       -2.48049461355165       -1.82131134577281
H           -6.36020601744808        2.55170123060052       -0.37197268862330
H           -4.79161656027645        3.10271198534355       -0.99158200814015
H           -5.02898626437207        2.91764813567196        0.74698717523499
H            0.10171647768617       -0.53471479919524       -2.31981075272011
