42
 energy: -83.001494909512 gnorm: 0.000930262201 xtb: 6.5.1 (579679a)
C           -4.72937433410210       -1.23502311594764       -1.35985708915649
O           -3.73431308512063       -0.69655285798946       -0.47284100287723
C           -4.08341229271647        0.35047039711718        0.24857176435301
O           -5.16433421823026        0.87200356261255        0.24159824034451
C           -2.91336137422063        0.83334981801674        1.15340656329275
C           -3.32059578012937        2.13411268695810        1.84657824333949
N           -1.78945853699402        1.07720656991979        0.27677913788731
C           -0.89138560990946        0.20141754218044        0.10387242370321
C            0.21958803763277        0.43731671918178       -0.89750430848935
C           -0.09067630795857       -0.40838238938402       -2.14147360380674
C            0.31933815312530        1.92411700518463       -1.24812095811881
N            1.46720391603375       -0.01060179883707       -0.27120976564493
C            2.65376800994675       -0.02707760403962       -0.92512675447399
O            2.81152201642734        0.16300518886180       -2.11570576783895
C            3.76389980485239       -0.32677442958167        0.01438318024249
N            3.66545234735125       -0.44000966680022        1.30511224523006
N            4.92082278152710       -0.68119062966216        1.77488130470778
C            5.70617886179097       -0.69828230227808        0.73997797914009
C            7.16708722114076       -0.93050750453172        0.71684571814204
O            5.03440375391822       -0.47916975519697       -0.39964305686416
N           -0.87115451507504       -1.03377567524601        0.73972383365841
C           -1.72975966577851       -1.39857455859855        1.73309989964638
O           -1.69743718115634       -2.48783714816613        2.25811035962982
C           -2.70524532944161       -0.29111791271681        2.15039492316275
O           -3.29041655569832       -0.34241443853682        3.20043907333257
H           -4.25234157535155       -2.05234454165005       -1.89502902970694
H           -5.06022084965869       -0.46255047674758       -2.05597553589514
H           -5.58109241269626       -1.59883117047151       -0.78205944553445
H           -2.49574630916725        2.49542114510300        2.45653685867284
H           -3.56785798190493        2.88199415395647        1.09632819865897
H           -4.18867566715996        1.95569930736548        2.47905454636209
H           -0.04409903003450       -1.46766504264523       -1.89572245798493
H           -1.09219905556306       -0.16811582637870       -2.49520729491901
H            0.62596036699012       -0.19514702054678       -2.93163502902340
H            1.10367658721432        2.07660984102228       -1.98706769857695
H           -0.63055140310938        2.26527081776027       -1.65582837787442
H            0.54908520801216        2.50227600943074       -0.35470758605930
H            1.49908929855733       -0.04814942767700        0.73722285508455
H            7.55835343258136       -0.90913229855058        1.73198031620436
H            7.38087731000341       -1.90210551241317        0.26945094422634
H            7.65611816955695       -0.16581278968118        0.11458128447678
H           -0.17871820547945       -1.71312187039408        0.46238986935001
