20
 energy: -37.574745895373 gnorm: 0.000844146531 xtb: 6.5.1 (579679a)
C            4.11614860821689        0.28374590341265       -0.45051877638111
O            2.73636818457941       -0.11188512480621       -0.58728051381988
C            1.84833817826226        0.56243971153526        0.08478493721653
O            2.01661507538743        1.48920334537448        0.81760018686494
C            0.45050622791425       -0.01015573614317       -0.19006118599010
N            0.15921168847865       -1.07487125928917       -1.01323825175005
N           -1.08873917285491       -1.24132490968099       -0.97829293601302
C           -1.69392895766541       -0.28610348961761       -0.12305315915539
C           -2.65110991619586        0.62721235507793       -0.90593409133559
C           -2.38806426934039       -0.96837963107988        1.06651728209438
O           -0.58608739457339        0.47444976699677        0.34378716899295
H            4.68030958640553       -0.35648089571179       -1.12406796149971
H            4.21991720940578        1.33443513174969       -0.72470174336039
H            4.43045209988040        0.13923443365237        0.58409435432993
H           -3.02718289398827        1.39315003338496       -0.23173489446933
H           -3.47163469401978        0.02415203812441       -1.28649415663847
H           -2.10988460503293        1.08793295920083       -1.72943519803643
H           -3.20598803487054       -1.57632103186915        0.68830147777912
H           -2.76849641556011       -0.19830794246479        1.73343902449338
H           -1.66675150442916       -1.59212465784683        1.58994143667804
