46
 energy: -86.356679763510 gnorm: 0.000484440635 xtb: 6.5.1 (579679a)
C           -0.20870372108784        1.38715669629880       -4.04590030042537
O           -0.35839512227093        0.82586787493734       -2.73118077910315
C           -1.57839934278889        0.72363791609617       -2.26294797173694
O           -2.58014428925541        1.07189543485468       -2.85437557907956
C           -1.64832454047333        0.11315478291792       -0.89886560168094
N           -0.50427863631826       -0.20958199563682       -0.28379886305768
C           -0.48120753191968       -0.78171021956226        0.88781536717578
C            0.90271415187884       -1.03889786353384        1.48021590270455
C            1.27655076955292       -2.52225339299914        1.31377542027183
C            1.03975174593691       -0.54224909911878        2.92891825287659
N            1.82243000914346       -0.24251814783196        0.66354715646320
C            3.16388393166895       -0.24276867068229        0.81044982745909
O            3.79146761851433       -0.91181957707591        1.61386784130043
C            3.82673508982000        0.69630783308289       -0.12769373537243
N            5.09475553675686        0.93457670902939       -0.24805086664864
N            5.22663927819947        1.88596948906819       -1.21432291125807
C            4.03074909080610        2.17173107909202       -1.62379091908565
C            3.63317824620171        3.15111859976061       -2.65770400364866
O            3.09704710422670        1.45260410134835       -0.97745843454502
N           -1.66321029297575       -1.11587282791269        1.50309794835692
C           -1.76680280386508       -1.89588736800729        2.74357596107922
C           -2.85412116865100       -0.74004353058736        0.97854227496770
O           -3.89169115776201       -1.04996528414362        1.71713750809644
C           -5.25561008767960       -0.77006322065395        1.35432334427490
C           -2.87557666888601       -0.09490081511884       -0.28460080209369
O           -4.03452575883015        0.25792433344550       -0.82275460729475
H           -0.67721159910687        0.72940903478343       -4.78025215291680
H            0.86153544415299        1.46329342946120       -4.22422898770374
H           -0.67818284350447        2.37153715771356       -4.08129228170189
H            0.54999551445181       -3.16914819756091        1.79726036798253
H            2.25481065964757       -2.69849715016186        1.75852989951819
H            1.31331239254115       -2.76662856571448        0.25334456672840
H            0.58199554092843        0.43982456775676        3.02920521018644
H            0.58669818043471       -1.22369669627419        3.64165128478039
H            2.09907992936165       -0.46663068460802        3.17109585106290
H            1.40812976155681        0.34653809056034       -0.04549795422185
H            4.51729433009262        3.62157833041580       -3.08189336998000
H            2.98818492656207        3.91155161324044       -2.21807184674669
H            3.07063549117450        2.64954990727262       -3.44458456099870
H           -2.53742161767278       -2.65131941461519        2.60059307144875
H           -2.05785010179989       -1.22829064265128        3.55277247288562
H           -0.82752356299940       -2.38294460530220        2.96449788666585
H           -5.51625160344284       -1.29478952597607        0.43499582794799
H           -5.85076652608611       -1.14380441600135        2.18665064776917
H           -5.40189462738112        0.30359411275953        1.23521613944775
H           -3.88948313885994        0.67545781783948       -1.71181250215451
