47
 energy: -79.524485770785 gnorm: 0.000951573819 xtb: 6.5.1 (579679a)
C           -3.55099512940801        1.93802057064155        1.34658905528542
N           -2.36375205197198        1.31538960176647        0.73578081781526
C           -2.39329029157468        0.20556787375606       -0.03044801355971
C           -3.60368749016416       -0.73911231479087        0.03524166909700
C           -4.67425947330497       -0.35707653839426       -0.99673480216763
C           -3.21091897568280       -2.22313039500084       -0.11900318628948
N           -4.17011732708422       -0.59785723470685        1.37300163241424
N           -1.30281506828176       -0.08739887340802       -0.74900052605166
C           -1.37030556937436       -0.95579143092723       -1.93717495911407
C           -0.06705898936288        0.51592118483560       -0.53128431949630
C            1.16341139368521       -0.10780989881605       -1.15858947060388
O            1.24960594592630       -1.31552800268154       -1.32185335504193
N            2.12053556710917        0.76274044424998       -1.48301146919928
C            3.40371983618286        0.29047463500006       -2.01154470997835
C            4.33572300966574       -0.05720806185085       -0.87175137814534
C            4.31471261417615       -1.33579192924102       -0.31834783281545
C            5.14819017297448       -1.65686927549949        0.74313094871523
C            5.99213012189752       -0.67685415293994        1.23466587081493
F            6.80033276143524       -0.97995925878230        2.26166306800973
C            6.03466022044166        0.60284546248775        0.71175310161429
C            5.19341376923064        0.90727580986225       -0.34954118349334
C            0.00218323507672        1.53529124602512        0.36246594105703
O            1.14687134144858        2.14558460116994        0.68181952840345
C           -1.19807232048276        2.04706779810230        0.99462414555331
O           -1.19783079308235        3.03435335977727        1.70256080836512
H           -4.44431504399955        1.66132034625003        0.80315816512098
H           -3.62996066195849        1.62738269227864        2.38609594229326
H           -3.40601538677593        3.01780320865657        1.29641096838627
H           -5.50389706071251       -1.05720601970806       -0.91329700757357
H           -5.04671511602342        0.64974709991367       -0.81912423868436
H           -4.27843129918012       -0.40611546970339       -2.00876320311467
H           -3.19680169844510       -2.54809880826868       -1.15565925981717
H           -2.24588134294217       -2.42086198884051        0.34318607369779
H           -3.96525824784764       -2.81655586087812        0.39643092984559
H           -3.58524087121600       -1.08430688424104        2.03961717484118
H           -5.08503127157459       -1.02643485000951        1.38658024953372
H           -0.73202769463133       -0.51622057253254       -2.70064708143534
H           -2.38693029560356       -0.98210167456369       -2.30880126158471
H           -1.01209879314112       -1.95517286915196       -1.69950698669192
H            2.02608446541938        1.74385574905981       -1.28629662937768
H            3.20685193932393       -0.58698575169598       -2.63377825390964
H            3.81735837722649        1.09045405786472       -2.62803221935403
H            3.63902704164216       -2.08295076039269       -0.71761574520256
H            5.14350144108280       -2.64537475842879        1.18379960006119
H            6.70636513892199        1.34314191892820        1.12674070750132
H            5.20682226149912        1.90389063473894       -0.77357978916929
H            0.97020760945065        2.88064534008469        1.29890348344286
