20
 energy: -37.577755741391 gnorm: 0.000552683713 xtb: 6.5.1 (579679a)
C            3.35458564649717       -0.49764475372356       -0.74940904372438
O            1.97342735950810       -0.25766762804286       -0.40021359387614
C            1.74319584714465        0.57931291266106        0.58538408995481
O            2.56331671875243        1.16210326650917        1.23603049861466
C            0.27835959610892        0.76597453925043        0.85061212846516
N           -0.23224761009122        1.55413804293223        1.71851326616625
N           -1.58987221276047        1.46355518559827        1.65840948777813
C           -1.91257339649745        0.62017594425385        0.75366667094799
C           -3.24931948244543        0.18807643180133        0.32189766947563
O           -0.74953737919542        0.10719655887369        0.16457434050220
C           -0.62959680240924       -0.89686173262712       -0.89331406671733
H            3.91989374757561       -0.74768034242253        0.14940940898379
H            3.76628652487020        0.39813160187846       -1.21624831326310
H            3.34494992559056       -1.32868586566907       -1.44948375012598
H           -3.39459002165688        0.39761863695627       -0.73829035345433
H           -3.99403283185165        0.72803856013763        0.90495325445034
H           -3.37289647101200       -0.88412503156151        0.47777794131934
H           -0.05214065343140       -1.72560244762790       -0.49060000634405
H           -0.12761913492952       -0.42504479088908       -1.73468511843918
H           -1.63958736976725       -1.20101008828950       -1.14898451071428
