16
 energy: -34.172779887245 gnorm: 0.000451706203 xtb: 6.5.1 (579679a)
C           -1.38576021353653        1.25471617572166        0.45427224538594
C           -0.62525785620209        0.01998910753396       -0.04599003896388
C           -1.43226991966757       -1.26493312302417        0.18021103668498
N           -0.33320523073351        0.17214171558449       -1.48194034769192
N            0.93419513827600        0.16547305690610       -1.63928263596940
C            1.56552337628407        0.02241585783144       -0.45632945645416
C            2.93416011269337       -0.02883357619447       -0.30749263829835
O            3.82006712115852        0.04863895278673       -1.14816447346777
Cl           3.44781915410904       -0.25063519158110        1.44204784831099
O            0.64095564854818       -0.07337068141163        0.58845122735735
H           -2.32356455602534        1.35249482398808       -0.08821371943759
H           -0.78092867682279        2.14426959086248        0.28581581091388
H           -1.59222159716439        1.16076850348396        1.51857304079087
H           -0.86710777061268       -2.11755143568323       -0.19273061763974
H           -2.37901108570966       -1.20334140041360       -0.35185772480788
H           -1.62339264459459       -1.40224337639073        1.24262944328667
