43
 energy: -83.864057028180 gnorm: 0.000521585422 xtb: 6.5.1 (579679a)
C           -6.44001032015013        1.69998758898051       -0.18833652987385
O           -5.27101469784559        1.06544437776826       -0.71013186371861
C           -4.26978815624869        0.86056130850528        0.19059333323955
O           -4.39156564732198        1.19205175046543        1.35842364545733
C           -3.07999763617205        0.22782809485082       -0.37659424734325
N           -2.07476993292480        0.04269261622028        0.55223556190732
C           -0.96409041141553       -0.49787422576161        0.19598491380410
C            0.12085814091667       -0.76645973894915        1.21950106701255
C            0.10123502254683       -2.27166299034226        1.53166150499538
C           -0.13639431611469        0.05975141901887        2.48455431017048
N            1.40080154234919       -0.38584782926684        0.61523891462236
C            2.58307095621615       -0.51945127442451        1.26562910246397
O            2.72987444628067       -1.15898162845815        2.29947465174239
C            3.78763668252930        0.11333082010212        0.53553207454252
C            4.70392845882695        0.80056009085393        1.56013622704054
N            4.48698603028474       -0.96340705432584       -0.16613338505742
N            4.47608513587800       -0.62628270582188       -1.47475904896928
C            3.85832042151148        0.48877811747770       -1.64126165433425
C            3.64875959859248        1.23050225276287       -2.91090315052090
O            3.36273229594695        1.03208269688552       -0.46263530180694
N           -0.72948755281154       -0.91174218090356       -1.08533207861433
C           -1.66393775400140       -0.79933106168838       -2.11276702943396
O           -1.38718105574640       -1.21079665682634       -3.23812283803446
C           -2.90295032464374       -0.18433912841189       -1.69523012435718
O           -3.83120799080048       -0.06387970172049       -2.67472352931355
H           -6.18548210635755        2.68053358406781        0.22337942303924
H           -6.88663276320587        1.08466325303243        0.59750511572191
H           -7.13627585517036        1.81198396133120       -1.01642580929919
H            0.80253159541688       -2.50656683970802        2.32983759764446
H           -0.90067918464457       -2.55950204538815        1.84726635111670
H            0.36856411877701       -2.84111268766225        0.64257453039683
H           -0.11034908088483        1.12215412199375        2.24644815646433
H            0.62128803135543       -0.15861559283913        3.23489852191054
H           -1.11891998153746       -0.18554709855760        2.88497622558651
H            1.36073516325476        0.33882417657135       -0.08872199743650
H            4.18926683953427        1.64642106602967        2.01179360430720
H            4.97543461989694        0.08376587337365        2.33267994686165
H            5.60260314266800        1.15224444906143        1.05836767651013
H            4.12486408777723        2.21150564822216       -2.86414596103017
H            4.07976793004794        0.66490939181360       -3.73487386400021
H            2.58503590899655        1.38543395517227       -3.09910664294814
H            0.15470734787967       -1.33769428450110       -1.32299817385672
H           -4.64435174947509        0.36054411099178       -2.35548722660365
