47
 energy: -79.540518057383 gnorm: 0.000603660076 xtb: 6.5.1 (579679a)
C           -2.72685037626937        3.96883012901085        1.68194303762586
O           -3.07593540265668        2.77834417519817        0.95696879014476
C           -2.18574843221541        1.98085696629270        0.40371091883474
C           -0.77959033504781        2.12701177602017        0.43211127164360
O           -0.21785994699690        3.16386848080839        1.04185157873167
C           -0.03230513505719        1.13766646254007       -0.19601817637135
C            1.45770429856385        1.21371969724263       -0.19165346940754
O            2.03792183040472        2.15046892324560        0.36489359587915
N            2.07107489994805        0.21873922028851       -0.82596041558972
C            3.52860219025654        0.12994447493319       -0.90100636678390
C            4.06676430202283       -0.67501086391522        0.26237637587452
C            4.42832981888845       -2.00817182968735        0.08997289020286
C            4.90970716856088       -2.75173237685662        1.15912514160746
C            5.01370313418467       -2.13492071118789        2.39242449026228
F            5.47629775913918       -2.84696049444914        3.43089075532949
C            4.65912705020773       -0.81328243874629        2.59868967132763
C            4.18248162301404       -0.08409635736448        1.51939390008050
N           -0.61964206287692        0.09569429466357       -0.79875544741258
C           -1.92114252925658       -0.02410080667903       -0.84162717239135
C           -2.46105742672653       -1.28010216460208       -1.50737573147671
C           -3.00106126937939       -2.22207533223831       -0.42028137664739
C           -1.32461559130245       -1.97826648630383       -2.26980444213317
N           -3.53453784343242       -0.93525251412942       -2.43255504765924
N           -2.71674723849529        0.91898633360547       -0.24608074779969
C           -4.18528691830283        0.85740084196858       -0.24833700579264
H           -2.11394124928643        3.71923991761269        2.54869194257503
H           -3.67665608203426        4.39603820881011        2.00231255815054
H           -2.19846121652684        4.66796486133514        1.03296402562999
H            0.78188189459571        3.06928581740236        0.94748517121811
H            1.51365048284107       -0.52124695749775       -1.22376577285364
H            3.92233798526152        1.15035689222376       -0.87840464716714
H            3.78216746817278       -0.33985679644402       -1.85310251844884
H            4.33587301083234       -2.47188253644971       -0.88451963693131
H            5.19480423280971       -3.78870723735705        1.03872630627904
H            4.75277245474061       -0.36832449321101        3.58081413361683
H            3.89541814874605        0.95189065025547        1.65350757949206
H           -2.21747122823446       -2.43989375611416        0.30370656516159
H           -3.84775426901432       -1.77828189225364        0.09879258765353
H           -3.32352079126046       -3.15378030900472       -0.88234817255280
H           -0.54445744088436       -2.30007352242113       -1.58259529261187
H           -1.72490232090729       -2.84812526456662       -2.78758058079790
H           -0.89116797540196       -1.29929266069125       -3.00122979967904
H           -3.93034765012252       -1.78802428849957       -2.80531079177134
H           -3.15411266585534       -0.40502663826895       -3.20461038400986
H           -4.56821711261930        1.83291093029109       -0.54338468245342
H           -4.52401709015280        0.62295370616098        0.75947167987531
H           -4.51321115287479        0.10431596902622       -0.95881028845321
