20
 energy: -38.278023638075 gnorm: 0.000451434470 xtb: 6.5.1 (579679a)
C            4.07364527163150        0.77565099087252       -0.29701525627343
O            2.66966645049773        0.84723739019264       -0.31251261443089
C            2.01996526268022       -0.44458090525260       -0.19372139047059
O            2.75601039849837       -1.48203176829928       -0.07820927882386
C            0.66697244142404       -0.37373011526871       -0.23704025000118
N           -0.26278569367380       -1.44746746419995       -0.13508330208645
N           -1.43744069923087       -0.83816055375691       -0.20382011126310
C           -2.63893906294288       -1.63319623705188       -0.12099038479896
C           -1.38442508499027        0.47052217521537       -0.32796799494434
C           -2.51975041363373        1.42157939444191       -0.44124536182796
O           -0.07924242668123        0.88773939054372       -0.36939206200745
H            4.45287985922545        0.32900086850983        0.63465445837020
H            4.45754411090818        1.79638404466255       -0.37728987791532
H            4.46482447012134        0.18507535110996       -1.13947535201142
H           -3.30609493078783       -1.38310019439164       -0.94455261833202
H           -3.14833106900264       -1.44034565658224        0.82335408847207
H           -2.35487534842883       -2.68179441447179       -0.17788651513066
H           -3.09184884379920        1.25538149248893       -1.35749461666417
H           -2.13092318530671        2.43797739298289       -0.45420003459876
H           -3.20685250650766        1.31785981825476        0.40085147473776
