33
 energy: -57.838788373231 gnorm: 0.000784087705 xtb: 6.5.1 (579679a)
C            3.48108001861096       -1.62144793631495        2.24449404543377
O            2.35203778029296       -1.26020262408450        1.43017949095676
C            2.45562291706745       -0.15900130788082        0.72167252734854
O            3.41976332858969        0.56760933861965        0.69985192908831
C            1.20821464215468        0.13942875280856       -0.07980021148524
C            1.32884073569049        1.11727990390034       -1.23209838191834
O            2.54990556184459        1.02632428689889       -1.89784817295565
C            0.21001482429459        0.86775076152998       -2.24606931865376
C            1.11449513003656        2.53414842919220       -0.64690428521576
O            0.29278041872771        1.07308727001686       -3.42820572380998
N           -0.96888490083090        0.43422724790541       -1.67886877875420
C           -1.08178321320122       -0.06545859266080       -0.37256926442287
C           -2.32137515166037       -0.72801712062599        0.10255451427407
C           -2.21990541298817       -1.72801692978498        1.22945061455271
C           -3.51029294139732       -0.90016899916022       -0.80971028371766
N           -2.05583918965487        0.67403594707095        0.51285940015982
N            0.10430990702652       -0.34218530594370        0.33472064913900
H            3.16558384136438       -2.47252500604893        2.84338959925808
H            3.75904680244820       -0.78006184694921        2.88155462013364
H            4.32239667101991       -1.89182492158501        1.60321897384696
H            3.28260181682933        1.22444549497569       -1.29212580985659
H            0.13110676925658        2.60809314625359       -0.19154517093777
H            1.20193306342241        3.26071590085662       -1.45308072477492
H            1.87914981878299        2.73072909695758        0.10140078203275
H           -1.71452726138348        0.23567561201781       -2.32752027112842
H           -2.15804148701426       -2.73072279302992        0.80742062703694
H           -1.33371209244143       -1.54042614894972        1.83282257521903
H           -3.10649910991203       -1.66653317606008        1.85819089597101
H           -3.61804136284488       -0.06044993043018       -1.49206151240445
H           -4.41729123121899       -0.98310395407371       -0.21188666321158
H           -3.38844681411328       -1.81674458815700       -1.38618575381761
H           -1.76507101561176        0.84890995172529        1.46428749234459
H           -2.59917086318532        1.40443204100983        0.07841059026749
