42
 energy: -82.980490939393 gnorm: 0.000463786044 xtb: 6.5.1 (579679a)
C           -1.21368977982306        2.71244582769402        2.57732971720191
O           -1.49345866232284        1.50864981631030        1.87732728192397
C           -2.69953902929259        0.92265196065624        2.16842828020989
O           -3.45095109883459        1.43261056346195        2.98189002879079
C           -2.91147175025979       -0.29767016518221        1.41153399642221
N           -1.87986370502203       -0.63767966322489        0.55672343111209
C           -1.94630033763541       -1.68697211091474       -0.17524262541381
C           -0.79649432343634       -2.02210190297613       -1.10636157508089
C           -1.24477621486951       -1.94907686094036       -2.57171352969070
C           -0.19839900723967       -3.39498861338683       -0.77507071824397
N            0.20207033594075       -0.97854168947981       -0.84824849835546
C            1.38557109326979       -0.89015753399090       -1.44402637726964
O            1.85018933228674       -1.62441278276844       -2.29387133992492
C            2.16355062896548        0.29564424463674       -0.92325676088074
N            1.79256184613310        1.16433844703351       -0.03140761361554
N            2.83853107710589        2.00640834072270        0.08772030218377
C            2.76239408506626        3.11759395083404        1.01014665589419
C            3.80727168666170        1.63686303698707       -0.72267451682845
C            5.13389274707024        2.24086474377292       -0.93384330921014
O            3.40544070612002        0.56232438706479       -1.36862550949490
N           -3.03619302977404       -2.52561099579626       -0.15203058429651
C           -4.13098740489261       -2.32127604140572        0.65705061070342
O           -5.05911567492010       -3.12157164387934        0.63209077229446
C           -4.08843529397632       -1.08373941882356        1.53135184841263
O           -5.05552191622246       -0.84484939857712        2.27164816044654
H           -1.96286862736152        3.47829074792146        2.35105141423718
H           -0.23349806192500        3.04857289385957        2.24275416477571
H           -1.19402913520217        2.53897613295270        3.65809043098757
H           -2.03648304018877       -2.67467824949239       -2.74771355439628
H           -1.61827786699164       -0.95118739469500       -2.79704200822148
H           -0.40835798887824       -2.17394091406148       -3.23074724372203
H            0.63972654491146       -3.60731435912904       -1.43609630791308
H           -0.95404128989166       -4.16646366775862       -0.91005054902452
H            0.14867780731759       -3.41168904405011        0.25708114481671
H           -0.08726293298292       -0.28870465012702       -0.15125877435056
H            3.71812779630432        3.63223730044732        1.01253929294290
H            2.53533419902359        2.72949755745348        2.00179458016346
H            1.96961301237796        3.78860765157162        0.68176144154539
H            5.63446244944901        1.73116878306650       -1.75480205342720
H            5.73412546508172        2.14583399324732       -0.02764713618067
H            5.03354216453668        3.30202066321684       -1.16146704753946
H           -3.05506780566729       -3.34297594221418       -0.73921492199061
