42
 energy: -83.592791918363 gnorm: 0.000440249011 xtb: 6.5.1 (579679a)
C           -5.75541621038632        2.33340974216219       -1.50189101287428
O           -4.75612380793438        1.78629920401807       -0.67128782107323
C           -3.67515908317844        1.21129607502581       -1.34780809178248
O           -3.68697257933065        1.22569476090380       -2.59846959270967
C           -2.66646573887850        0.65975644482157       -0.52756462525695
C           -2.65457437180748        0.65892721343792        0.94954065137590
O           -3.56454390028360        1.19167814826073        1.65903476354381
C           -1.54270803488196        0.01891863847839        1.51237210147964
O           -1.26243242848531       -0.08247936890205        2.87369612237510
C           -2.28398807675411       -0.63764870036594        3.69025518244340
N           -0.56075571975142       -0.58987885176954        0.71713880685849
C           -0.61937509460616       -0.46912293194688       -0.64798631336327
C            0.49138384075042       -1.13589097349095       -1.44338318338487
C            0.20582817564593       -2.64767973095546       -1.46654155736672
C            0.51739943715622       -0.56669000137433       -2.86947937404208
N            1.75452407615574       -0.87566598619419       -0.74485609440327
C            2.97636003822315       -1.29196963599221       -1.29049431860491
O            3.06493608549594       -2.18942894170319       -2.15940512866367
C            4.11088062608292       -0.64235795394058       -0.71719107861629
N            5.40300527502807       -0.84715120314836       -0.99883579726600
N            6.11222255502012        0.02392111044113       -0.21915649333091
C            5.26368136266603        0.70297138481721        0.48052068850912
C            5.56430049609286        1.76650266928726        1.47124168848101
O            3.97484593034817        0.35533660144085        0.23557465603406
N           -1.60517383673757        0.09423311661188       -1.24760522087867
H           -5.35886846594555        3.14127513416558       -2.13105877498178
H           -6.53545111912219        2.73681630352836       -0.85355797412374
H           -6.19468673604562        1.57179183338518       -2.15957727339176
H           -2.57240149470671       -1.63907490807359        3.34514619148864
H           -3.17431739191791        0.00389261470662        3.70917771633768
H           -1.87552165963413       -0.71376322940545        4.69993913291779
H            0.24986900250102       -0.97447970201421        1.17066990160367
H           -0.78457359958062       -2.82268245375041       -1.88702357140915
H            0.94176180117765       -3.17678089606342       -2.06949573960023
H            0.23169612419049       -3.04239428871676       -0.45122024373993
H           -0.46926938868583       -0.67764006252888       -3.32008160315958
H            1.24997152474557       -1.09318163115858       -3.47918111383201
H            0.77007977368691        0.49329299261708       -2.84269433841865
H            1.80161813793965        0.03345507532745       -0.30351903862006
H            5.12386583256559        1.52034106605946        2.43781473336490
H            5.14896250937111        2.72081004894392        1.14493386230306
H            6.64158913380709        1.86534327305742        1.58143517577051
