42
 energy: -82.999543274099 gnorm: 0.000725370376 xtb: 6.5.1 (579679a)
C            4.21803908065611        2.82807068319190        2.30177275841235
O            4.09608830167594        1.97579277150131        1.16138209459293
C            2.93549375577463        1.33538382510751        1.02689911082797
O            2.01784866019242        1.43585583177455        1.82831072520054
C            2.82786676712804        0.49613986649775       -0.16163240358019
N            1.59282666968692       -0.13041166755795       -0.23050668465091
C            1.18227989836447       -0.90416997099072       -1.19505361319745
C           -0.16311150641950       -1.59974502054065       -1.11260825619291
C            0.11542104694930       -3.00970283780798       -0.56955782176507
C           -0.82493455985303       -1.73382276469522       -2.49377029669306
N           -1.03278271400212       -0.76163361826075       -0.26259291488212
C           -1.36375309949996        0.54697754268125       -0.83765820702506
C           -1.59335766812538       -1.18118306367944        0.90310737430344
O           -1.27044570708404       -2.19354905276172        1.50517304446965
C           -2.66172101456940       -0.33598555435822        1.50843820880920
N           -3.02649702472894       -0.44102575143953        2.75029700059683
N           -4.07125822593963        0.41058096413705        2.93371822160479
C           -4.29420767612125        0.97775239442129        1.78979568311320
C           -5.33100087713466        1.97930202655662        1.45983287595815
O           -3.43787117384457        0.55027612857682        0.84718383624325
N            2.03999793192090       -1.15085583759874       -2.20447902393552
C            3.33101857759177       -0.62574149393003       -2.31007636984028
O            4.00662857272350       -0.91994209664452       -3.27219590125958
C            3.78521716133891        0.29100728935167       -1.18503821114169
O            4.91251535116315        0.78102225332776       -1.23381764871543
H            4.11830483038796        2.24618786610439        3.22153615715069
H            5.20556085420805        3.28277561657268        2.24827423436939
H            3.44440036695057        3.59952337507654        2.27890702676468
H            0.65036234284864       -2.97351293841982        0.37662299344006
H            0.73538511776151       -3.52855023490666       -1.30010083587795
H           -0.81362594644468       -3.56066555296786       -0.44587700633250
H           -1.85417004523427       -2.06211649279896       -2.36104177726945
H           -0.82093649832021       -0.79158074994063       -3.03607221382932
H           -0.29961045912448       -2.47864214676309       -3.08812834472056
H            0.96209030191497        0.07304043013693        0.54452233061975
H           -0.58544526704812        0.82526115718738       -1.54400664767365
H           -1.39505836900911        1.29338199027847       -0.04697521301253
H           -2.32430205273224        0.50864571981949       -1.35016568548524
H           -5.90601298757877        2.21790024162224        2.35146339421591
H           -5.99535327472368        1.58754289407135        0.68984482071481
H           -4.86395061407253        2.88381277741196        1.07122689298654
H            1.75205917243923       -1.74339679935748       -2.96771670733424
