42
 energy: -83.579660923079 gnorm: 0.000263670030 xtb: 6.5.1 (579679a)
C           -6.12242171501769        1.39979815496348        0.37938943044437
O           -5.18128695321412        0.34357161723231        0.49341381370596
C           -3.96392101267534        0.57438162337828       -0.18597141889636
O           -4.11020978749838        0.70217805424323       -1.57115503805165
C           -4.01804290489075       -0.50916986685661       -2.31642840943730
C           -2.72870536270600        0.34963034724786        0.41067952840292
N           -1.62855117533915        0.37824246579407       -0.44083519770298
C           -0.44189201445632        0.21535777394540        0.10885013739885
C            0.73063790693535        0.24289087798670       -0.88368616116666
C            0.51640963478111       -0.84624056174174       -1.94573050470037
C            0.79555671281999        1.62705352392890       -1.54796557425031
N            1.94990449723335       -0.01383564250661       -0.13021768522967
C            3.18826003935633       -0.13883040756072       -0.65654711380557
O            3.46532693707122        0.02234638559458       -1.85605128305730
C            4.17801756606571       -0.48324851302581        0.36212837923001
N            3.95333135966934       -0.63704033938273        1.65269367751733
N            5.14850344247002       -0.98187798825622        2.22072038386863
C            6.02193149441986       -1.02048228443479        1.26774054252636
C            7.46058772132014       -1.35846081583353        1.38391411284940
O            5.49322766582119       -0.71587645557905        0.06410093726159
N           -0.13769259333644        0.03628621616384        1.38055779835117
C           -1.17365719890812        0.00404476373737        2.31291175305282
O           -0.90306845530892       -0.15755734170286        3.53707911429096
C           -2.48803505259315        0.16125633599839        1.79381226418345
O           -3.54397815987872        0.13574048926296        2.72091567543399
H           -5.75655154389115        2.31547765007618        0.86333741381699
H           -7.04063284019919        1.07544040349148        0.87129874910643
H           -6.33998646568959        1.61839320941402       -0.67284639122768
H           -4.23479992129900       -0.26741790110383       -3.35924512692641
H           -3.00682235596586       -0.93393657112308       -2.24684602910217
H           -4.74451508020067       -1.25214372448460       -1.96346451129102
H           -0.46577046190591       -0.70743561921424       -2.39795814300945
H            0.55349989605302       -1.83284886526013       -1.48315621141070
H            1.27691220514824       -0.79145734347124       -2.72371798803905
H            1.56964828577760        1.65505017926202       -2.31435751441591
H           -0.16897149832391        1.84452794400826       -2.00714024655660
H            1.01073719505019        2.39217585417392       -0.80131405398486
H            1.80292004690682       -0.18770501363976        0.86723303138064
H            7.70747139274408       -1.54170518171077        2.42662483476822
H            7.68717612956325       -2.24947664519179        0.79844082832409
H            8.07422932394691       -0.54198425320188        1.00436937877199
H           -4.38477489984809        0.07488946538929        2.24211981759865
