43
 energy: -83.884418733500 gnorm: 0.000648763896 xtb: 6.5.1 (579679a)
C           -3.49895248890078       -0.76006437773217        3.77149268682180
O           -3.38126467712537       -0.23267278940793        2.45077635792335
C           -2.28645780100507       -0.60968050969891        1.76033487860018
O           -1.46969053035542       -1.36737704633840        2.24352354177365
C           -2.18444689694825       -0.02415171852352        0.39223722277232
C           -3.28533092579034        0.44277800622486       -0.33423980994262
O           -4.59086785199979        0.48785005271253        0.17031304235530
C           -3.13863985692637        0.73774834103047       -1.72321234800159
O           -4.03557115629169        1.08089144325060       -2.50924716243969
N           -1.85276814129710        0.50751548489859       -2.23295954115695
C           -0.69928315100729        0.58641666012708       -1.34909530278440
C           -0.31476716252770        2.06762389998692       -1.11779221357241
C            0.47890869347462       -0.21766236813652       -1.99070707658606
C            1.05242450740465        0.45001086220679       -3.24276142043521
C           -0.00032099743406       -1.64127687090246       -2.30539237474370
N            1.50397292905828       -0.28121959435193       -0.94277631796737
C            2.70648244412662       -0.84542280776029       -1.07827527313902
O            3.17154784844957       -1.32192717987831       -2.10781980227200
C            3.50082482510468       -0.82904107608501        0.18537762140684
N            4.65052351842339       -1.39247061192844        0.39749982440088
N            4.99758872054999       -1.10717368569508        1.68713922795061
C            4.03896381394744       -0.38663799678818        2.17918270574412
C            3.94997869943587        0.18925681889527        3.53929226139975
O            3.06053112570636       -0.17700489358136        1.28345032627709
N           -0.94014487468431       -0.03386763727185       -0.06677019885119
H           -4.42891951800718       -0.37728351982675        4.18569708409083
H           -2.65439740905854       -0.43439444320248        4.38408518723978
H           -3.52087818617406       -1.85303365700699        3.74563572521901
H           -4.58588716233682        0.76076995144262        1.09543715247425
H           -1.71037848056957        0.95757048736231       -3.12677310731531
H            0.62490239769101        2.12937882122284       -0.57235032095822
H           -0.21744644306031        2.59549167064158       -2.06437812159493
H           -1.09321595756950        2.54976220638400       -0.52802697846829
H            1.56420486928444        1.37566805609162       -2.98572693168223
H            1.76470428182935       -0.21186011583663       -3.73385383718223
H            0.25196261587831        0.67289432342700       -3.94579309210595
H           -0.79174178393191       -1.60160420819364       -3.05285653712300
H            0.82101648739663       -2.24496095222904       -2.68860539111202
H           -0.39394078767409       -2.10205291905947       -1.39871027097453
H            1.16577159025277       -0.05541355244082       -0.01096322926484
H            4.85646883277556       -0.04260955832619        4.09258533953578
H            3.08856581508909       -0.21948338885534        4.06710584063199
H            3.82596922480336        1.26986739314241        3.47791963306823
