46
 energy: -86.344113191424 gnorm: 0.000321747179 xtb: 6.5.1 (579679a)
C           -4.48682410900807        2.43823724475392       -2.62618300927964
O           -3.51022794030195        1.63930147095879       -1.93096148469921
C           -3.78985916359308        1.14658793750126       -0.78273550724873
O           -4.95472917668683        1.39186891868078       -0.28338506090466
C           -2.78515867288310        0.34626616006434       -0.12172526866263
N           -1.61035911262248        0.21694087897870       -0.80374588479830
C           -0.63153139926479       -0.47788969054978       -0.31734257900506
C            0.61429804198868       -0.56370911642665       -1.18845730297093
C            0.52318266761270        0.47210533014194       -2.31828917391664
C            0.71413313970489       -1.97418187141328       -1.78952663753881
N            1.77453943324985       -0.23827200790799       -0.35556951186657
C            3.05466390028978       -0.30160127653090       -0.80784254880263
O            3.41082901021570       -0.78545954111975       -1.86332261981709
C            3.97964549731698        0.28173703134285        0.19389313724205
N            3.63192277928969        0.86219605457422        1.30410649154884
N            4.78126161159077        1.25560996639462        1.91736419208898
C            5.75887642635253        0.89055751407623        1.14192238721481
C            7.20847061105600        1.08234133535139        1.36598429600135
O            5.31464704303408        0.27288818175046        0.03768270324500
N           -0.74266580150379       -1.12270496671288        0.88488633147728
C            0.29518507687563       -1.96734795224270        1.49141555819667
C           -1.88823512956358       -1.06624964533116        1.66883628054690
O           -1.93788045941599       -1.66763522367493        2.72803495977928
C           -2.97498492694870       -0.25460477345608        1.11144169982980
O           -4.13306302290732       -0.08497898539886        1.73781471485489
C           -4.43157911987299       -0.67069326254047        3.02158473049910
H           -4.02621025704299        2.71891554843486       -3.57033231727717
H           -5.38764124811357        1.84609873590258       -2.78904452591491
H           -4.72469166105473        3.31829505488047       -2.02815706682242
H           -0.33656963382538        0.25672822973246       -2.94932580246421
H            0.41469304130705        1.47182373516991       -1.90214959737158
H            1.42976565035770        0.42848319839498       -2.91982118972350
H            0.92236803682136       -2.71931803716916       -1.02606529210072
H           -0.23179827483439       -2.21823733335274       -2.27074748880057
H            1.50682563121243       -2.00424243364979       -2.53478282773253
H            1.60842590349518        0.34471131301171        0.45151797901634
H            7.70746502960315        0.11430135019878        1.41407473389206
H            7.64216799908518        1.64488205900113        0.53928472698354
H            7.36596238913854        1.61997099280814        2.29788445812941
H            1.20866783844479       -1.93400274736114        0.91206683331031
H           -0.08552210219372       -2.98718116031751        1.54666048878021
H            0.47981416652917       -1.60182175182225        2.50160631155334
H           -5.11608023806733        0.98786265026588        0.59732593983613
H           -3.72596755569549       -0.31345393584944        3.77213786183269
H           -4.39656400272956       -1.75845898130149        2.95556758134488
H           -5.43966791644299       -0.33666819824405        3.25957230051471
