42
 energy: -83.587464378274 gnorm: 0.000314999701 xtb: 6.5.1 (579679a)
C           -1.12093493448747        1.53929761691876       -2.95222824646995
O           -1.11209070470638        1.15142763017640       -1.59465729148839
C           -2.30481830494428        0.59102364060631       -1.12514653923778
O           -3.23920410459744        0.44517499652112       -1.91821785876910
C           -2.24920456478863        0.27742153857539        0.25893380290939
C           -3.30351170344548       -0.32907946034541        0.97759420807878
O           -4.40475148467318       -0.70334334178700        0.50800526273507
C           -3.00743711093391       -0.60285725017446        2.44712326451128
O           -3.89679473582459       -0.73344514795406        3.31527428791408
N           -1.70671231256567       -0.77305131365530        2.75908741803901
C           -0.59302199977798       -0.28604933628018        1.98151856800095
C            0.24465458592135       -1.44034394564559        1.39084470910331
C           -0.58379185194551       -2.59408298095514        0.77831839029074
C            1.14817792808106       -1.99527764503678        2.50727112629487
N            1.07749428833885       -0.83367307228918        0.34659533210879
C            2.01358821989054       -1.46296795304390       -0.37313474009363
O            2.34403978490440       -2.64959589278623       -0.24555585479238
C            2.67588023148153       -0.60461160814948       -1.37726106155888
N            3.59656094049786       -0.96871665734561       -2.23531267190585
N            3.92381847988627        0.14568761754092       -2.95734546715404
C            3.19387740390947        1.11440438371708       -2.50400871477763
C            3.18874865246105        2.52300509726615       -2.96149697474489
O            2.37974853880641        0.71740176206816       -1.50801810888783
N           -1.02720066832715        0.64874467693432        0.95915696991186
C           -1.11719229404839        2.01203217627984        1.51070070192538
H           -0.13064759956086        1.93536455375209       -3.18245552873801
H           -1.33225777685614        0.68880932647242       -3.61309841874644
H           -1.87127306070490        2.31746580600215       -3.13883134623650
H           -1.51744383549092       -0.98660722669902        3.72603244835169
H            0.06650170753040       -3.39395174657652        0.42354515152495
H           -1.24944964079463       -2.99949867487355        1.54055400537822
H           -1.18194907671120       -2.22555016770509       -0.05624723293669
H            1.80988872084394       -2.78084031317158        2.14236174282281
H            1.74851838403791       -1.18512416590644        2.92066581326712
H            0.52572853890161       -2.40421161264579        3.30235567163582
H            0.84161830795962        0.13173546049988        0.12304208940463
H            3.92549840745373        2.65042960407972       -3.75002138668714
H            3.42676879718178        3.18866474635805       -2.13261658771066
H            2.20333268503588        2.79420956853157       -3.34057854917602
H           -0.18044797692070        2.23456807480680        2.02410656254512
H           -1.94711247155188        2.12030301433216        2.22491860256669
H           -1.25719938946478        2.72571122157770        0.69554045076033
