42
 energy: -82.989966754464 gnorm: 0.000418174791 xtb: 6.5.1 (579679a)
C           -5.21086194671587       -1.97953559796124       -0.46414952370880
O           -4.98624208115450       -0.59351845230966       -0.74141325502624
C           -3.87085113971604        0.06594938714161       -0.52230444172293
O           -3.74511693425640        1.16165919956581       -1.24992766995331
C           -4.75041616959541        1.48617823583305       -2.21313816320722
C           -2.81054871044757       -0.24147158255959        0.34642852442580
N           -1.67684457657528        0.53538507730626        0.10611973493947
C           -0.61611039617029        0.37543591968418        0.79746543254241
C            0.59833622032895        1.24427843081655        0.54793264433163
C            0.74413209491094        2.22646990539263        1.71949004348845
C            0.44435770703849        1.99193879070330       -0.77955330854392
N            1.76266094257964        0.35132874401418        0.48711101041798
C            3.03042066308048        0.79186556382195        0.32495348265007
O            3.38606680707695        1.95607152693621        0.32833436080824
C            3.96335279407809       -0.35137078260130        0.14937578554275
N            3.63250869940617       -1.60614044101377        0.08349585366921
N            4.78670770903275       -2.30795695868062       -0.09279344339560
C            5.74846473876618       -1.43560346170731       -0.12536011781882
C            7.19571395861108       -1.69289163433623       -0.29285816263174
O            5.29170402822598       -0.18313382713351        0.02117874859060
N           -0.52249345096878       -0.55107754644633        1.81509958190626
C           -1.55814941778689       -1.35663229481862        2.20697440073118
O           -1.41341124673930       -2.17719302447361        3.09402389532623
C           -2.86783457255529       -1.14172421369512        1.46428659810070
O           -3.88130662820923       -1.69907196473545        1.88280971621510
H           -4.27535237567382       -2.53841219422528       -0.49318296266062
H           -5.88253487302300       -2.33253841443783       -1.24741441538147
H           -5.68831252862691       -2.09155248479030        0.51048209677278
H           -4.39677043951058        2.37674447664058       -2.72928477763531
H           -4.87767533773305        0.66334585027715       -2.91929850402090
H           -5.70032981798649        1.68954132089342       -1.71429784857286
H           -0.17144660848481        2.80852973136229        1.81432933538442
H            1.57746686836133        2.90386508516453        1.54456624324694
H            0.91563905576516        1.68200740975582        2.64609209926017
H            0.33470336588921        1.28123612451900       -1.59696486152052
H           -0.44623527671551        2.61706713410363       -0.73868763390077
H            1.31584979864155        2.61863109308833       -0.95881397671689
H            1.59642939773825       -0.63536439318978        0.35510874251521
H            7.36329913163919       -2.75805774840989       -0.43269430851672
H            7.73872084075066       -1.35099814374181        0.58875279018607
H            7.57428364432020       -1.14528290701659       -1.15600170270041
H            0.34802806241527       -0.65799693873220        2.31276595658645
