42
 energy: -83.005220865090 gnorm: 0.000227380829 xtb: 6.5.1 (579679a)
C           -6.28484922309557        1.15939696905385        0.97694604901433
O           -5.08247106150652        0.44217205583927        0.70093036898296
C           -3.99100652236244        1.17875694999552        0.47382474767487
O           -4.00515235095858        2.39378269384773        0.51298716026645
C           -2.77849764738599        0.38572059106471        0.15926207024468
N           -1.70231670195491        1.15723832191309       -0.12273263854731
C           -0.57019261104967        0.62987412453867       -0.45244640272600
C            0.62532400229151        1.47597423785719       -0.82457390645272
C            0.53561392552129        2.84588675327758       -0.14529964458341
C            0.68035201373039        1.62250928941585       -2.34907321165388
N            1.84320604928958        0.77824758972663       -0.40369692453435
C            2.03578740468790        0.38711924248102        0.87660193646357
O            1.19949274035932        0.47665284301216        1.75962005357853
C            3.37372569361129       -0.21057042306682        1.09960180696590
N            3.86747577244729       -0.66826194831471        2.20768051080296
N            5.11625926104119       -1.13049546692613        1.92042008501730
C            5.30822252966361       -0.92811447528617        0.65392492563958
C            6.50361360338465       -1.26151410070328       -0.14986294531610
O            4.24419923592920       -0.34707490749314        0.07564331418269
N           -0.44408766960954       -0.73282085384740       -0.54883148210617
C           -1.43591122247926       -1.56937159205038       -0.26240326820227
O           -1.10852436999163       -2.84332945566190       -0.41053927285028
C           -2.03572713228239       -3.90809535919808       -0.16174320274826
C           -2.74422945845844       -1.04530932841892        0.14646003579600
O           -3.68016585905772       -1.80917378848336        0.43083324060765
H           -6.54799478622515        1.79565513612091        0.12792112343107
H           -7.06213888648716        0.41597713085564        1.14353568435786
H           -6.16061464448090        1.78227410917339        1.86671093156447
H           -0.37699553446336        3.34645517520454       -0.46622541980796
H            0.51261643397660        2.72845792847351        0.93738972404365
H            1.39599769902762        3.45015803517349       -0.42372221578339
H            0.74874667939171        0.64266601547352       -2.81738129374518
H           -0.22001895216580        2.12244571586193       -2.70301249530155
H            1.54850151022784        2.21330133789012       -2.63414161951422
H            2.60936903319272        0.72924537922601       -1.05214256414906
H            7.24205413716366       -1.75694840018072        0.47591800536441
H            6.93208430229828       -0.35327896001324       -0.57305990309175
H            6.22291867719815       -1.91504179322494       -0.97529165290497
H            0.43405588792233       -1.12797474179153       -0.85464892928864
H           -1.48391822215928       -4.82454729511187       -0.36969460987096
H           -2.36721685915447       -3.89707809862833        0.87838782640387
H           -2.89758387702240       -3.83096563707564       -0.82676599723256
