42
 energy: -82.979619701552 gnorm: 0.000337588697 xtb: 6.5.1 (579679a)
C            6.92110348935081       -0.06521539436099        1.50319729791247
O            5.79543843811834        0.56884900326339        0.91081574732319
C            4.74832476538330       -0.24048339039954        0.61765076119756
O            4.79901073183686       -1.44059929143561        0.85913779285858
C            3.61041686150871        0.43332066590760        0.00704935775786
N            2.57766492432124       -0.43386819237948       -0.29541778660725
C            1.50822534497468       -0.01318860590704       -0.86006003124949
C            0.41587659329366       -1.00335791622541       -1.22527599562069
C            0.22036249599218       -1.07403092970639       -2.74388039744587
C            0.78283944729514       -2.38290636353544       -0.67661029081203
N           -0.85782077375359       -0.62346763083898       -0.56472595380451
C           -1.69030818759292        0.33666215265892       -0.96555731457381
O           -1.53663714127808        1.13011655463999       -1.87568430197421
C           -2.94521550248879        0.39765842569248       -0.13694384856300
N           -3.91452821445981        1.25310451731894       -0.26218550864514
N           -4.81130532375675        0.90141369809288        0.67742848695400
C           -6.05280632433802        1.63496476535315        0.80823285523710
C           -4.38001873173500       -0.14763718152641        1.34462698135856
C           -5.03049868411655       -0.88321694320631        2.44006711441328
O           -3.20322610213203       -0.48257397714898        0.85276463071899
N            1.33468473900597        1.31326194808639       -1.19315306611835
C            2.25809273948337        2.29021114674065       -0.92115626350365
O            2.01617088388827        3.45786993887215       -1.21665582108400
C            3.54204134211286        1.82486059136397       -0.26789689524633
O            4.42119077024620        2.66910366826042       -0.02071122042410
H            6.65666848401215       -0.48923438916543        2.47679918399779
H            7.68894406138580        0.69741627907075        1.62927654136652
H            7.29643077124511       -0.86715336815115        0.85988720689471
H            0.05410541333493       -0.08720964260869       -3.17017951061366
H            1.11413815510005       -1.50407016392070       -3.19449648860081
H           -0.63285784331663       -1.70791671427158       -2.97677548837470
H            0.00274062154379       -3.10141257782270       -0.91832060802870
H            1.72305796198583       -2.71092649499957       -1.11820431943856
H            0.90792663517844       -2.33665181240541        0.40427969042843
H           -1.15145451639584       -1.20680254746970        0.20012837029363
H           -5.93077837517299        2.59566351605873        0.31370379839129
H           -6.85026815848949        1.06432916054803        0.33403598681872
H           -6.27261103270515        1.76840437506679        1.86478929726585
H           -4.31606035363609       -1.56529732492130        2.89655066866510
H           -5.87262910801892       -1.45611930892464        2.04673303720548
H           -5.41822137859596       -0.18750835323810        3.18411362926296
H            0.47179108139021        1.60685010758608       -1.62737632559637
