42
 energy: -83.587266183670 gnorm: 0.000470633905 xtb: 6.5.1 (579679a)
C            4.88655969959026        0.91630794074216       -2.40766849340875
O            3.90641156838470        0.34368968043183       -1.56626214326021
C            4.08167557242877        0.58620888504532       -0.19913847980247
O            5.04671698866503        1.26759971054386        0.15710376266453
C            3.08088521814717       -0.02816162518111        0.60160060245028
C            3.02239974854722        0.09295491657428        2.00779993938091
O            3.80557107001097        0.75401848510458        2.73048681064259
C            1.83521084202147       -0.59761404731978        2.66630889056843
O            1.81168164712215       -0.93013285313552        3.87048512356298
N            0.75094832345814       -0.76261815929621        1.88338765924250
C            0.75195152448991       -0.79488267137246        0.44095999669593
C           -0.07936630729351        0.34660375424263       -0.16622105079459
C            0.24175994006561        1.74516973592718        0.40393608646828
C            0.09696607542946        0.33906167337003       -1.69174567855471
N           -1.48603017247197        0.01240539224344        0.15974507534095
C           -2.56971045646334        0.70608102134261       -0.24608091452271
O           -2.55212365359801        1.80301880404119       -0.81238680833455
C           -3.81891810769438        0.00423268400936        0.09719848481803
N           -3.92032554988955       -1.15840819630782        0.69695291455565
N           -5.25627428055908       -1.42218743219411        0.82009026629162
C           -5.88484323793228       -0.41887145374422        0.29613513911643
C           -7.35085715904096       -0.23521197249482        0.18647368966031
O           -5.04631591693860        0.52037710225716       -0.18112088883409
N            2.09691313420760       -0.84194632587973       -0.09687422798363
C            2.55450881064727       -2.23519438779250       -0.24245216386394
H            4.65893972219497        0.60898671236998       -3.42917735356074
H            4.87385567857373        2.01190962180958       -2.34902063427762
H            5.89210678608326        0.56763630300384       -2.14212224852334
H           -0.05120064496230       -1.17322269455958        2.33595223819053
H            1.29614313276045        1.96760779179513        0.23576950814564
H           -0.35932532605119        2.51602301297564       -0.07764589807759
H            0.04293274045321        1.76216792256983        1.47634026687006
H           -0.49699186396026        1.12207194020406       -2.16238525170544
H            1.14933221412973        0.49477943067591       -1.93443641011898
H           -0.21004674291146       -0.62763196272746       -2.09172691141842
H           -1.64295870505890       -0.93236460029509        0.48329629645922
H           -7.85860887355714       -1.06346814596929        0.67417605351310
H           -7.64854728145472       -0.19733642808270       -0.86133057194649
H           -7.64972960282012        0.70174981145747        0.65574705103776
H            3.47701695374744       -2.25636820724654       -0.82782840093475
H            2.73910734355260       -2.71965400053729        0.72823366724121
H            1.78257914797193       -2.79538616861140       -0.77292799298094
