33
 energy: -57.866929065247 gnorm: 0.000354473759 xtb: 6.5.1 (579679a)
C            3.70527181656628        2.49192191743061       -1.51225544083819
O            2.65481658064019        1.65081786462910       -1.02114708160280
C            2.99206645576198        0.40292523635981       -0.69834331082019
O            4.11320976500097       -0.03318439732439       -0.80054656410048
C            1.82137484419398       -0.37587302801493       -0.19378594732820
C            1.90084012585624       -1.64804999039512        0.29879513478008
O            3.02524173162888       -2.35363061576410        0.39182515491017
C            0.69620527840472       -2.32211713882708        0.77079535394839
O            0.73169741926558       -3.46226833061240        1.20976262425507
N           -0.48096360373029       -1.58392114358725        0.69509534735730
C           -1.67358153975146       -2.28453196029739        1.16782569659180
C           -0.47811506726046       -0.31642145296147        0.16264368752864
C           -1.71148745303634        0.57458135975101        0.07057802384656
C           -2.12796560713085        1.11812461648899        1.43818919300689
C           -1.42755922388845        1.73287305422385       -0.88966480795302
N           -2.88978730887980       -0.16547773315251       -0.52431967330638
N            0.60652395809583        0.25144538773023       -0.24492446911137
H            4.52657445605336        2.52721859790487       -0.79185933119245
H            3.27231008110272        3.48132751200324       -1.64408404551767
H            4.07454042420849        2.10932707257777       -2.46677330966192
H            2.82030126848197       -3.22890979004004        0.77163482620121
H           -2.61514193204318       -0.71086771435615       -1.33473561238786
H           -1.34455182070838       -3.12119033913655        1.78460316380876
H           -2.29095253729276       -1.62178588966172        1.76397026687874
H           -2.23270742853703       -2.66870770876730        0.31705908372018
H           -1.29327912119872        1.67411594758262        1.86432320744378
H           -2.40310425165762        0.32073386953712        2.12382829021543
H           -2.97716618401163        1.78933662550994        1.32294918678666
H           -0.60895919337517        2.33484330971734       -0.49838371321782
H           -2.31304021201453        2.35802561173482       -0.98613981682935
H           -1.14367507805153        1.35181322828402       -1.86883158802267
H           -3.58988434635968        0.50609464445962       -0.82396083088092
H           -3.33905429633615       -0.77858662302213        0.14587530149981
