46
 energy: -87.033046167805 gnorm: 0.000923132892 xtb: 6.5.1 (579679a)
C           -4.53781671758468        3.92909738222903        1.14825743596561
O           -3.48065879403563        2.99805028104293        1.02120229606225
C           -3.74305759438952        1.92099740243024        0.17178876815879
O           -4.86541682350711        1.86819746298865       -0.41869403990878
C           -2.73940016099427        0.97279680148505        0.05823777765854
C           -2.89805132968871       -0.16736228189421       -0.83182382906849
O           -4.00897077954360       -0.22750916789533       -1.62003218188914
C           -1.93539294022993       -1.10995283847364       -0.88085663989803
O           -1.92034671973592       -2.20957999851512       -1.72195417481558
C           -3.01477091936273       -3.11077932507828       -1.60163463127477
N           -0.80346516451146       -1.01676203576453        0.00284340236470
C            0.20749398535551       -2.04697950535899       -0.16094316513836
C           -0.59974649721815        0.21493066260141        0.63321642036424
C            0.68552758884753        0.50012948209182        1.40908117018264
C            0.77758824578922        2.00692372831212        1.70185445473094
C            0.68255542041599       -0.26462947955333        2.73883477277184
N            1.87705358868915        0.10227316179476        0.65472056532432
C            2.13287984299713        0.55831909240473       -0.59894173715487
O            1.36524753039650        1.25508580408789       -1.25846461388372
C            3.42795824485635        0.10334743309092       -1.12594983064150
N            3.93284529191401        0.34224315789439       -2.30806270263163
N            5.14171446641109       -0.29235064443742       -2.35333939664105
C            5.30427586454229       -0.87653148908952       -1.21012262165655
C            6.45951796492123       -1.68877356143345       -0.76610638272902
O            4.26161307887254       -0.67251661361652       -0.38119002507308
N           -1.50121824799106        1.11991358778819        0.70307750756443
H           -4.20362943581197        4.70479871138316        1.83933753777563
H           -4.78607669512746        4.38690241670395        0.18248926124195
H           -5.44130634218893        3.45323819008412        1.54901096326770
H           -4.58379879666165        0.55157755521396       -1.31577689477674
H           -3.15295086992520       -3.42962076880269       -0.56172042666559
H           -3.94581822345112       -2.65850747693784       -1.96361387013907
H           -2.77523818022550       -3.98166026572568       -2.21409605522603
H            0.89737066023044       -2.04085090961314        0.67665145139350
H           -0.28282969528914       -3.02136663341977       -0.18613666721064
H            0.77374946156495       -1.91472304463577       -1.09023921327266
H            0.73162775638543        2.57548194767950        0.77337020824991
H           -0.05292466189761        2.30894617934576        2.33819156264406
H            1.71564929131932        2.22349794233903        2.20979740028730
H            0.64491011016131       -1.34032207037635        2.58187406431349
H           -0.18732462083496        0.03119404660071        3.32403597256956
H            1.58180208611247       -0.02945749193054        3.30606713352663
H            2.61685942084791       -0.35088771496345        1.16019005957505
H            6.12589422012405       -2.68103035628081       -0.46389589084169
H            6.93797767895786       -1.21915862691697        0.09317814470992
H            7.17810141049193       -1.77662912889164       -1.57740634017460
