46
 energy: -86.340175358156 gnorm: 0.000976890683 xtb: 6.5.1 (579679a)
C           -4.61154703437800        3.19830371833467       -0.49022953106783
O           -4.14002244027109        1.84990136471531       -0.32734191508841
C           -2.83932287118876        1.66531841729848       -0.33830659511280
O           -2.02059409802747        2.54079412106891       -0.46650432854601
C           -2.48107385486171        0.20291829658045       -0.21063880688025
C           -3.24387578798770       -0.78344629580375       -0.75594674952326
O           -4.39195783715320       -0.56750568654404       -1.37951052699584
C           -2.82822684974258       -2.17468110273394       -0.64617778635852
O           -3.52705754052008       -3.09507491520658       -1.01003879212202
N           -1.55873618428444       -2.37882237620042       -0.08847574443848
C           -1.27012469512342       -3.80918276546415        0.09859369628608
C           -0.74508318969396       -1.37308516874403        0.29404741226316
C            0.75155265175154       -1.61527403364273        0.54261814920509
C            1.01091064257958       -2.01008693291512        2.00458898445947
C            1.34510348444803       -2.65794631433796       -0.42795954121615
N            1.41888432518410       -0.36072378272446        0.19101847051674
C            2.67032769652023       -0.01110673215218        0.61746279611200
O            3.30355818069460       -0.55776909028726        1.49304245553327
C            3.12649322441555        1.18920197117098       -0.11848956086106
N            2.45403858875576        1.82415485119668       -1.03259667678083
N            3.22768482595696        2.86746066400671       -1.43373306536788
C            4.32579273481142        2.80425609868802       -0.73899507304719
C            5.48924864678505        3.71534880273507       -0.79884194387695
O            4.31817310203502        1.76575276787985        0.10859365531624
N           -1.25500412631966       -0.13895915481943        0.35953903069197
C           -0.63082542600458        0.90965269652906        1.19164004896145
H           -4.30777788480183        3.79741124209807        0.37035036740901
H           -5.69607516756437        3.13646894509056       -0.55154143242765
H           -4.19451081325715        3.62754358537242       -1.40345013418451
H           -4.78285486227883       -1.41317198942334       -1.66961488612067
H           -0.55052733156474       -3.94800945567451        0.89463046012676
H           -2.21061753684028       -4.28581499880117        0.37529978183073
H           -0.91781938227504       -4.23903466274919       -0.83665289200910
H            0.98880536473853       -1.13914065048804        2.65542528689923
H            0.25157607469187       -2.71292434436660        2.33949225770047
H            1.98814899250743       -2.48105407735027        2.08816840129717
H            1.24419988060311       -3.67254741376378       -0.05621775438305
H            0.88787172083006       -2.57743209264585       -1.41149994077557
H            2.40996105255570       -2.44831819295269       -0.52206330735225
H            1.13013913177816        0.04581527037054       -0.68839266439523
H            6.39751367003844        3.14534075216642       -0.99514914911260
H            5.61040354566696        4.22339644869260        0.15853360535857
H            5.33902046525168        4.45172574133761       -1.58490507346647
H           -0.06873739358921        1.60212978674453        0.56807487494398
H           -1.43122878735676        1.43947936096146        1.70338378396742
H            0.01419509248933        0.44874032676461        1.92876935263078
