46
 energy: -86.297336285676 gnorm: 0.000607322634 xtb: 6.5.1 (579679a)
C           -6.36578104149800        1.92326497350932        0.17757625924133
O           -5.09170079921164        1.26721472316942        0.18273256868753
C           -5.06881723822708        0.01515973191462       -0.24634032674169
O           -6.05987794580713       -0.57713799725074       -0.63633107264572
C           -3.72709601064917       -0.61146827691305       -0.21302610719644
N           -2.67957739512454        0.14425798737434        0.23268228808640
C           -1.49114003673406       -0.35882056536388        0.30468633305659
C           -0.42629127520285        0.58263327719897        0.86142902286155
C           -0.25384512889044        0.31808802324112        2.35942836217126
C           -0.88415081586393        2.03423087867302        0.65083490900585
N            0.82033594165324        0.44137448118118        0.08768989265713
C            2.06273881983413        0.31884772906674        0.56812492851399
O            2.41355021568099        0.11799818814481        1.71357163450890
C            3.06607232007347        0.41373328135426       -0.54076469119822
N            2.87881746225386        0.61355699305085       -1.78994502574752
N            4.09043493892149        0.61851040056865       -2.42305567003125
C            5.01194515357725        0.42176479010723       -1.55899316492241
C            6.46846754130176        0.34469099801272       -1.74690149243499
O            4.43122851720182        0.27495780382590       -0.29295581363169
C            5.06838321201066        0.03525616890610        1.00508549662361
N           -1.22815374423248       -1.66012133156844       -0.03452983105641
C            0.09961734596256       -2.26022573115812        0.08825614116592
C           -2.20938152286239       -2.50592412258461       -0.56190901042543
O           -1.94060612485687       -3.64234013836896       -0.91502112737698
C           -3.54233696922384       -1.90708696837843       -0.62381168777287
O           -4.51352596953356       -2.69240273663521       -1.08762612614511
H           -6.77165954764053        1.94159062244711       -0.83644926417233
H           -6.19387601307529        2.93526751583068        0.53772724020157
H           -7.05826521786360        1.39512612185166        0.83695166989769
H           -1.23515994710340        0.39269937121961        2.82814293371204
H            0.15290022154773       -0.67055214153282        2.55488470132938
H            0.40427692975981        1.06310708044891        2.80064769611924
H           -0.10481354928264        2.71129802021025        0.99421298792546
H           -1.79682357011350        2.21741829112927        1.21509333804657
H           -1.08069297597625        2.21881520523373       -0.40380682120399
H            0.73432048533202        0.66203340221251       -0.89484286712010
H            6.97024139253911        1.10545940724388       -1.14785995461644
H            6.84050190553894       -0.63329816899038       -1.43920268741847
H            6.69319390969182        0.50389594342280       -2.80046237129553
H            4.80710132792207        0.86964823224934        1.65230842750343
H            4.67740365219631       -0.90428438187047        1.38844653402824
H            6.13660071235836       -0.01604505525172        0.82169855794093
H            0.57414854618590       -1.93739895482406        1.00839084658859
H           -0.01919804061169       -3.34363012485798        0.10121521191418
H            0.71169376204581       -1.97518080205093       -0.76542796316343
H           -5.37120443400177       -2.20598414518166       -1.08771890547623
