42
 energy: -82.956354438429 gnorm: 0.000656880438 xtb: 6.5.1 (579679a)
C           -5.07103922554310        1.69442806685991       -1.34681886345020
O           -4.41731886919918        1.09810187426391       -0.20923191539327
C           -3.17853881404197        0.71364083867607       -0.34992654747790
O           -2.50013968505937        0.79263081267571       -1.32784042750796
C           -2.64449692892879        0.07563837456041        1.02015761021912
C           -3.80417503560789       -0.56661604211954        1.78196496806233
N           -1.67666402249473       -0.88603136886313        0.62468464732989
C           -0.43353061052541       -0.52464827723047        0.52139373511254
C            0.51398906858780       -1.59424853047479       -0.00281224129242
C           -0.02958426669054       -2.13755857382913       -1.33109404399234
C            0.61577061205033       -2.71067267374173        1.04728488675747
N            1.82089084466760       -0.97860069494551       -0.20867574420395
C            2.89440011657532       -1.63196034583950       -0.67592541141959
O            2.93312264500015       -2.81606638121660       -0.98050180277712
C            4.08787656923998       -0.75306686902739       -0.81124301632343
N            5.26520420457463       -1.07756304090220       -1.24788064602652
N            6.02607618654196        0.05418251027086       -1.20841800679775
C            5.26573026046194        0.99871809176662       -0.75011247926014
C            5.61960800326397        2.41626841810644       -0.51845724858766
O            4.02742924210372        0.55486564073949       -0.47879885925789
N            0.12058816424391        0.66546981855116        0.84811194548462
C           -0.62459610429001        1.60351785689255        1.43609867699913
O           -0.26316256954558        2.69899948927542        1.87127174713244
C           -2.06940036202956        1.27771501767761        1.61265736457170
O           -2.77934595976837        2.17381469172095        2.19928641191109
H           -6.13833672727463        1.64255684236354       -1.14504009086590
H           -4.81857299607607        1.14135932495326       -2.25304251917451
H           -4.74859834727342        2.73233833161284       -1.44036731572466
H           -3.40575433712190       -1.07159412209219        2.65958145321262
H           -4.51655302489704        0.19323780898527        2.09349556064032
H           -4.29897792395175       -1.29547204148861        1.14452005194237
H           -1.04271166049427       -2.50439511480350       -1.17549332138306
H            0.59540281020855       -2.95225672171698       -1.69266244622811
H           -0.05193987511505       -1.34282895609129       -2.07578317377870
H            1.04579658692500       -2.31750260298398        1.96729604406630
H           -0.38161536839093       -3.09373917237845        1.25633534025748
H            1.24145278419147       -3.52135375408775        0.67724333570862
H            1.89349689080419        0.00027340732270        0.04519026446980
H            4.91809787887241        3.06508938951718       -1.04183273467261
H            5.56049127077307        2.64602556023379        0.54529507642595
H            6.62947036274814        2.60434972468070       -0.87372773105403
H           -2.17984078752437        2.93295339213493        2.43225746633171
