42
 energy: -83.020598276136 gnorm: 0.000458391567 xtb: 6.5.1 (579679a)
C           -4.99347583935718        2.51616853194755        1.24249819955025
O           -3.83082467392851        1.70911925113588        1.04115158002112
C           -3.93559546214803        0.73750681751453        0.12965435685630
O           -4.95062536873721        0.53128438963796       -0.49410568300463
C           -2.66388455192509       -0.03317168302961       -0.00511135626075
N           -1.64670716066987        0.37639709462550        0.81650341664315
C           -0.50936342325966       -0.22554776515746        0.76843988669538
C            0.60839552903280        0.18705500984663        1.70093530504528
C            0.68644389380827       -0.84774954415821        2.83444051052353
C            0.34094880326173        1.59204541648144        2.24864292309034
N            1.85544515892498        0.17786579701218        0.92766039306022
C            3.06307019795279        0.44792480884281        1.47231252273627
O            3.27693471644833        0.65728301598229        2.65379375968783
C            4.14988879635495        0.44755065470570        0.46163094916865
N            5.41166316513234        0.67852965232447        0.65035693024503
N            6.01914056584460        0.56280112797767       -0.56357633347713
C            5.09102017323277        0.26772244700105       -1.41968237169820
C            5.23719742746756        0.02946932822920       -2.87190047428326
O            3.88410644791349        0.18137189990274       -0.83626445742091
N           -0.29224161573438       -1.28170758026858       -0.06608479848025
C           -1.22894053032413       -1.78787601948774       -0.94495833886749
O           -0.94367501049655       -2.73867765098126       -1.65754667234087
C           -2.51081440897550       -1.07810773487585       -0.89160103834011
O           -3.53852057255087       -1.42177081426666       -1.67558991107885
C           -3.46266714016839       -2.46474972382765       -2.64736224866192
H           -5.83747550794280        1.89295464404855        1.54820800553772
H           -5.24949769575726        3.04297928774802        0.31985675406137
H           -4.74652907109570        3.22915916076141        2.02644524303644
H           -0.27864762527159       -0.90568186416747        3.33570903069637
H            1.44574081703193       -0.55808810990886        3.55821472176826
H            0.93519477562661       -1.82588860594927        2.42709504194913
H           -0.61418632174827        1.59871176559441        2.77123818785759
H            0.29902880105078        2.30731911197647        1.42882929114286
H            1.13079218300255        1.88001283258693        2.93965188154509
H            1.79120543153078        0.13338797968996       -0.07553505689271
H            5.00132558894572       -1.00977137990885       -3.10245778126500
H            6.25768896106857        0.24605858795997       -3.17911333362255
H            4.54242619734800        0.66137701956790       -3.42341404424974
H            0.60384857460303       -1.74508268275822       -0.07403457497823
H           -2.68433226886983       -2.25898298665288       -3.38527085578956
H           -3.27571978196555       -3.43129685576012       -2.17414154420803
H           -4.43778317466817       -2.47790263192935       -3.13648501600930
