42
 energy: -82.942339792708 gnorm: 0.000607878846 xtb: 6.5.1 (579679a)
C            6.06432435043496        1.46961790648341       -0.98687528577898
O            4.74019708297297        1.01752635400019       -0.70005920860064
C            4.60319117160877        0.22050080657773        0.36591975852579
O            5.53881642558102       -0.11335901960586        1.05786692928159
C            3.18729459764826       -0.18853734393161        0.58133839056920
N            2.27567623056627        0.26278736798813       -0.31586731498352
C            1.01011463520452       -0.08620097686740       -0.14448789365435
C            0.04030533328574        0.45302835442726       -1.18457110179724
C           -0.02601460689736        1.98058873213635       -1.08361266897747
C            0.48184892272831        0.00728303605438       -2.58086182977646
N           -1.27139802822916       -0.11718110422259       -0.85052017129138
C           -2.35645434466422        0.02357754054679       -1.57158414916083
O           -2.51325558926979        0.58128306190142       -2.63109909624853
C           -3.63553091254460       -0.67494988107253       -0.87100929428831
C           -4.74506364276846       -0.80837111386271       -1.90255658058700
N           -3.22283096139910       -1.89049937887625       -0.28529226108279
N           -3.27352565232451       -1.77758603218078        0.99959436904844
C           -3.75045070922914       -0.55687548264844        1.29293409681580
C           -3.96409599647678       -0.01359029861059        2.63949763317296
O           -4.00444150765472        0.14095689420315        0.22109838100694
N            0.51256493081678       -0.83810572028457        0.82208100596589
C            1.35635211047534       -1.33842889397292        1.76850778362643
O            0.99846910257988       -2.05484789985533        2.70948584970559
C            2.77721334994898       -0.98521536328998        1.62957485988160
O            3.59118244263802       -1.48296670359301        2.56376047493876
H            6.47040091112779        2.01631159760873       -0.13188866521262
H            6.71326707633039        0.61929190552402       -1.21159448421582
H            5.99005508025372        2.12531858686999       -1.85208537291947
H           -0.68945821756133        2.38116428306145       -1.84830587433141
H            0.97416433075407        2.38843358293209       -1.22332648171329
H           -0.39591937480860        2.27213568108254       -0.10201839899059
H           -0.15479034869382        0.44982841599203       -3.34468311538325
H            1.50965721373820        0.33173643561742       -2.73974114791818
H            0.43543553504014       -1.07788291309303       -2.66027741331441
H           -1.28224001145670       -0.63486904788855        0.02876362930048
H           -4.96173852160354        0.17292327238547       -2.31853911299575
H           -5.63337326932020       -1.21386143675614       -1.42507098792143
H           -4.41050399244148       -1.47473757912272       -2.69389632732184
H           -3.14040820819824        0.65914388792460        2.88997747035381
H           -3.99838340765554       -0.81737230781510        3.37106026538052
H           -4.88289864304841        0.57057492920328        2.66250788187203
H            3.04224411250068       -1.99857513496822        3.18856745902084
