47
 energy: -80.210499450292 gnorm: 0.000233663193 xtb: 6.5.1 (579679a)
C           -3.66748238443728       -1.81799965816088        1.07348531841484
N           -2.63049561591013       -1.29879868646575        0.19276584110240
C           -1.56816525474561       -2.24397681465617       -0.16418206475506
O           -1.72626318011415       -3.47025507558778        0.12679357259414
C           -0.53231970297695       -1.69363608079747       -0.84458739209127
O            0.57406555109839       -2.51319306203185       -1.22361196412219
C           -0.34407024650649       -0.22267034220842       -1.04282365294879
C            0.29692947531466        0.11148415089848       -2.40506658822816
C            0.57402533560569        0.31927323000339        0.08589954368572
O            0.24415605522698        1.19041489130614        0.88388607112247
N            1.78689364744847       -0.28946154006226        0.14591023936522
C            2.68474195412820       -0.07050205648819        1.26568962246360
C            4.10590258380666        0.16245108492991        0.80896978843810
C            4.37696290483605        0.72699223186671       -0.43533836672283
C            5.68453393356638        0.94946325938559       -0.84348936840933
C            6.70858397139218        0.60103443834026        0.01808952665269
F            7.97973488520900        0.81257602693236       -0.36868669073137
C            6.47787443284529        0.04115986269360        1.26141908790809
C            5.16374670970454       -0.17696633472850        1.65070329221296
N           -1.62020961382052        0.47229136423758       -0.96560510379458
C           -2.62117674104133       -0.04577034769379       -0.34306533137025
C           -3.84980716649332        0.87190396198509       -0.24687504802581
C           -4.00240135829103        1.40554541600640        1.18426046748341
C           -3.66842256074770        2.06812004014025       -1.19873285967476
N           -5.06822308694733        0.14838487690771       -0.62318224568222
H           -3.57744369100523       -2.90736109915347        1.10443933935080
H           -4.66456027032249       -1.56147709736442        0.71555015109892
H           -3.54034222812101       -1.43391335280250        2.09111012291134
H            0.34477705171745       -3.41346005787125       -0.94598737791365
H           -0.36093151487949       -0.22879374531731       -3.20460686572578
H            0.43431371733523        1.18869306622500       -2.49781775353519
H            1.26167843560565       -0.38259024313832       -2.50695606570158
H            1.95065991984905       -1.12125316768954       -0.40530061617708
H            2.65280322597771       -0.92848839599584        1.94892806873161
H            2.32568060690893        0.80995363611512        1.81475975867656
H            3.55737869079716        0.98793172832661       -1.09662137874652
H            5.90787293502870        1.38343623671359       -1.80937768314076
H            7.30652288878752       -0.21999205848039        1.90589869882830
H            4.96361908782052       -0.61807842471023        2.62061503189644
H           -3.05722084319050        1.83012582381087        1.52422573909109
H           -4.30270857456711        0.61718218824873        1.87179058943560
H           -4.76454551043836        2.18417274797490        1.21011308245684
H           -2.80589295619206        2.66507130914607       -0.90251184491453
H           -3.51367614573624        1.71792541267658       -2.21879243223912
H           -4.55988141264233        2.69353711150391       -1.17311922505675
H           -5.86568000167914        0.74267495911960       -0.44884376051754
H           -5.05153593921662       -0.04316141406501       -1.61672327369458
