33
 energy: -57.868075631830 gnorm: 0.000694807016 xtb: 6.5.1 (579679a)
C            2.12768079295511        2.69427829177305        0.00048055484163
O            1.49990082013653        1.40624255309479        0.07025969133105
C            2.30850912707630        0.39134332141813        0.41244070305712
O            3.48237749183853        0.54769871356224        0.64534317345397
C            1.59894220373830       -0.91585948808642        0.46725003126201
C            2.23869445760691       -2.08450294781031        0.78355132752006
O            3.53888249564597       -2.17202370739466        1.07134842002579
C            1.49699364150630       -3.34438117311411        0.82032322471831
O            2.01179006638283       -4.41564108828616        1.09664695359065
N            0.16369660751149       -3.21130211112584        0.51479935127389
C           -0.41673476755533       -2.01545910221127        0.21215155298381
C           -1.87500883242736       -2.03924891892238       -0.09657774831996
C           -2.01068770212975        1.72137137483334       -0.65458622140995
C           -1.52016290350893        1.82731317237131        0.73223189357787
C           -1.05462666851868        1.42536853973788       -1.73812685619789
N           -3.26655222714722        1.86549250744610       -0.91517761958093
N            0.24915219682072       -0.90835865106281        0.18390099539142
H            2.50832837062449        2.97713700433107        0.98493770030465
H            1.36159968345901        3.39459181037958       -0.32352979667881
H            2.94993724537061        2.67100036548797       -0.71886305112902
H            3.76242708039578       -3.10194341234050        1.26106253131573
H           -0.39752945752333       -4.04834025802881        0.52111040236983
H           -2.06523207984345       -2.66783110594628       -0.96693959801271
H           -2.43441651883876       -2.44743375178229        0.74516310762946
H           -2.22270015355957       -1.03065065439303       -0.30232290479941
H           -0.90526456943962        0.94959893390895        0.95233596933658
H           -0.86310728434404        2.69515775109251        0.81434953292936
H           -2.33125647527846        1.91503656422492        1.45094139139017
H           -0.36387783185956        2.26380017903802       -1.84555877899517
H           -0.45134556227673        0.56077123437979       -1.44474962016183
H           -1.55179247418133        1.23939819990040       -2.68698281290434
H           -3.62729523643629        1.79193382170645       -1.85244403130135
H           -3.94131653612984        2.06544403188624       -0.19476946877686
