16
 energy: -34.208301358653 gnorm: 0.000381758399 xtb: 6.5.1 (579679a)
C            3.25203000423401        0.32880576529798       -0.06643836227966
C            1.79231494547021        0.32834491624302        0.16871544385637
N            1.16512022321525        0.67686413449342        1.25327883579260
N           -0.15879369245779        0.52236901023182        1.00166067109716
C           -0.26670136122067        0.08641129011251       -0.21972231421028
C           -1.51846995341581       -0.22445422481103       -0.94720036807276
C           -2.76207566215804        0.00420652388060       -0.14388616666389
O           -1.51222661121461       -0.62474823391074       -2.08897891101440
Cl          -2.61412153170470       -2.18930743764011        2.83207456709933
O            0.94868096050657       -0.05375361365348       -0.79465807379262
H            3.48753939657101        0.95255384300292       -0.92777995157053
H            3.76544572947519        0.71076720300364        0.81191536217520
H            3.59765538215863       -0.68226817607051       -0.28034391486777
H           -2.79057615312477       -0.71861715360166        0.67522263877058
H           -3.64091251880088       -0.11730934322548       -0.77124370079784
H           -2.74490815753465        1.00013649664825        0.29332324447687
