13
 energy: -19.065362502861 gnorm: 0.000583959791 xtb: 6.5.1 (579679a)
C            2.01037267072403        0.22949274796116       -0.48662109383036
O            0.66242989748262       -0.29257292316168       -0.68119517726871
B           -0.54073521952274        0.13697731379477        0.05133269189113
C           -1.86580151650632       -0.56003323001712       -0.34650360826832
O           -0.26188713794975        1.08280644324267        0.93970717885086
H            2.31661278715569        0.74639257636280       -1.39522599071730
H            1.95661835787343        0.91891377436645        0.35306844485535
H            2.67158008332963       -0.60628430700985       -0.26295606749139
H            0.59424424995378       -0.94853189750164       -1.38737689072405
H           -2.29534203967158       -0.06978173639220       -1.22117030694487
H           -2.60124990891382       -0.50519602852894        0.45352233779177
H           -1.70926364834880       -1.60499051228590       -0.60619503987645
H           -0.93757857560616        1.47280877916941        1.49442352173241
