43
 energy: -83.855815390305 gnorm: 0.000380291235 xtb: 6.5.1 (579679a)
C            6.86368931626458        0.81290278506761       -0.64834623074533
O            5.56003174366177        1.34342428921123       -0.40266851369839
C            4.60117252246462        0.42300632386598       -0.10656776205023
O            4.86147870762539       -0.76701025288870       -0.05555494479079
C            3.27775829449079        1.00077382572492        0.13679554842963
N            2.32329822672700        0.05113056432034        0.43960751963055
C            1.10995458205959        0.41570046958128        0.67366821172455
C            0.06306994610176       -0.59961980471238        1.09086582970737
C            0.40729657848347       -1.97664265435784        0.50575604735514
C            0.09039156243807       -0.63476002017000        2.62969114968878
N           -1.22660473646932       -0.10377064970994        0.60804484304519
C           -2.38394927345909       -0.94837535312367        0.79451155084449
O           -2.44892978595182       -1.78368532667292        1.74049490830807
C           -3.36833989756098       -0.75230530370665       -0.14401190325553
O           -3.32339627821233        0.20657294343035       -1.17232078670903
C           -4.53423962669594        0.13883121294233       -1.75153807978145
C           -4.81075421185984        1.01219675545468       -2.92263486222518
N           -5.35918307724980       -0.69312257754680       -1.23978334227226
N           -4.70726391089164       -1.28392571134802       -0.12028784332648
C           -4.79872827141299       -2.74702238027273       -0.19235721055751
N            0.72768993401652        1.72561324096999        0.64920402928759
C            1.58643033569455        2.77705913285946        0.36185297490901
O            1.16778101291276        3.93417114291608        0.35775561471089
C            2.94313487758370        2.34925925215171        0.09408609687922
O            3.80752122613749        3.35486554411659       -0.18502617115940
H            7.22337019518736        0.26957805323801        0.22972268603929
H            6.84037259379661        0.13546140806893       -1.50618390072077
H            7.51465160144742        1.65887120030009       -0.85721336423162
H           -0.28337872549126       -2.72743040197308        0.88649064667744
H            1.42417825817354       -2.25003511784018        0.78610976665379
H            0.33927755019167       -1.94706711286557       -0.58116149654985
H           -0.58371626639886       -1.40092423553794        3.00749945222574
H           -0.21561785989267        0.33321362201759        3.02524857932110
H            1.10226426774393       -0.85329863793316        2.97049816418481
H           -1.15902151514087        0.16603222200935       -0.36807316044755
H           -5.83727748495959        0.87110844298091       -3.25195243036987
H           -4.65177603663669        2.05724059582541       -2.65818230643153
H           -4.13173275447526        0.76342590277270       -3.73789842551328
H           -4.32864911614880       -3.12842026389004       -1.10353813264452
H           -5.85039186812456       -3.02833316281387       -0.17683734783196
H           -4.29324927480975       -3.15252076963635        0.68354831048358
H           -0.24153126878968        1.95438831973769        0.82741719355637
H            4.70291890742968        3.02344448743430       -0.36418090835017
