42
 energy: -83.632054926531 gnorm: 0.000681498080 xtb: 6.5.1 (579679a)
C            6.76011921660939       -0.26411463511637        1.24979775760678
O            5.57735225440354        0.33698561005862        0.72570476478048
C            4.51829336094485       -0.50073860693595        0.56055207237720
O            4.60777862591433       -1.68216509484753        0.84254962896151
C            3.30825156933818        0.15324441810212        0.03757080932104
N            2.23827143050089       -0.69661945739373       -0.06521578858996
C            1.10120939338506       -0.19219714624227       -0.49336711774000
C           -0.07109137949422       -1.16005666184419       -0.64319206228392
C            0.13070835065822       -2.39758871119599        0.23938059799610
C           -0.16171879749813       -1.56533277180915       -2.12489164724184
N           -1.28433993890397       -0.45483399900300       -0.25017890225806
C           -2.51968779379452       -0.95584555292564       -0.24346133761704
O           -2.82181469103872       -2.09620447708039       -0.60218419337047
C           -3.57223010570581        0.06394060582882        0.32460317029984
C           -4.24893539489028       -0.61989023581516        1.53083348012556
N           -2.92671495397916        1.31176414773162        0.69539260902591
N           -3.50616793239166        2.27711843078407       -0.08732142365082
C           -4.39969765609857        1.75525542326431       -0.84168947042352
C           -5.27672328946582        2.44520462512557       -1.82835272097312
O           -4.54240884881308        0.37076448637290       -0.67626941994577
N            0.86608822612136        1.06559903567703       -0.84944895131031
C            1.87653484721338        1.97730900165365       -0.80120316945636
O            1.71143670107931        3.16402175115867       -1.13896294425329
C            3.17598829928032        1.47651618534510       -0.32672341472122
O            4.17090562284420        2.40436755030208       -0.28745702130828
H            7.10251415370836       -1.06730604793561        0.59171955892256
H            6.56871684074885       -0.67449825506761        2.24519479853987
H            7.51560399816722        0.51606458176566        1.30860773475529
H            1.07363483160774       -2.87730337128643       -0.01992116335530
H            0.16646090902869       -2.10664065379869        1.28919448492032
H           -0.68125461450662       -3.10858421897249        0.09364773918612
H            0.76456550655974       -2.05252749379988       -2.42618962866189
H           -0.99014364800672       -2.25472735754698       -2.28348759768802
H           -0.31042673212852       -0.67857419798840       -2.74150626774059
H           -1.20194568398453        0.51860016477669        0.07324399369838
H           -5.03449289729258        0.02706288281478        1.91542793604845
H           -4.68049356092848       -1.57319500385063        1.22864802701754
H           -3.50995477603387       -0.78614617066852        2.31227338647645
H           -6.33099334427731        2.28602707830969       -1.59183552313917
H           -5.10452444147431        2.07365711976661       -2.84155877037976
H           -5.06991149355459        3.51425932060806       -1.80540901859141
H            5.01124183613816        2.02732670169188        0.00982100464476
