33
 energy: -58.531128463458 gnorm: 0.000619684351 xtb: 6.5.1 (579679a)
C            3.69141805545311       -2.83880143439197        0.76180489412023
O            2.46471519086074       -2.15057184645373        0.63190489097541
C            2.58239202768794       -0.76112804718505        0.46029332380520
O            3.74801232026607       -0.24972747758214        0.46883850892512
C            1.40290703033146       -0.06313691118676        0.31555616222908
C            1.41975662309718        1.38431249796805        0.08988964937042
O            2.63346351791503        1.99263787257265       -0.09339429222939
C            0.26172710334648        2.05870734050691        0.00344477847759
O            0.09721451163683        3.41967779505069       -0.23384341915771
C            0.57292860192352        3.89190929707050       -1.48676551999150
N           -0.97893246337527        1.37625255562929        0.26578242261977
C           -0.91574502935571       -0.02823631572682        0.16668588600945
C           -2.27167522139664       -0.70579307757790        0.08154427330351
C           -2.11176897800689       -2.15177870528641       -0.40657803791166
C           -2.92605549045726       -0.67649294549456        1.47084577760368
N           -3.11774627563054        0.06586701742307       -0.83543438731907
N            0.15124379287855       -0.71575818102575        0.24801675567809
H            4.32598737075713       -2.69868971083260       -0.12298217105290
H            3.45836781640475       -3.90006426494229        0.86989847416730
H            4.25060161537273       -2.50232884601920        1.64484475710574
H            3.31324938672162        1.25859138699135        0.07663935235646
H            0.09367974716482        3.36343201116487       -2.32028279665168
H            1.66075275271500        3.77658340229395       -1.57212034812468
H            0.31973146822613        4.95211269652571       -1.54559050818654
H           -1.76601269863446        1.76741290333172       -0.24156170566906
H           -1.65547836505750       -2.16202395198544       -1.39634675807266
H           -3.08258605089322       -2.64149683741323       -0.46134969759100
H           -1.46796294460962       -2.70603945479159        0.27755228947789
H           -2.30415225993880       -1.20846292066516        2.19148656905217
H           -3.90677212737943       -1.15011174673927        1.43842513686037
H           -3.04558305413690        0.35584014285540        1.80086499563764
H           -4.07329016666201       -0.25115509456665       -0.75891312908062
H           -2.82438780722599       -0.10153814951487       -1.78915612673778
