42
 energy: -83.630232127745 gnorm: 0.000353520400 xtb: 6.5.1 (579679a)
C           -0.85435593366546        1.97287821987469       -1.82269866018774
O           -1.94128319338811        1.09379423038549       -1.84893036442896
C           -2.99051984361924        1.33218804892201       -0.74054783671154
C           -4.27815387045406        0.81621577781960       -1.48075592280809
O           -3.04662725754742        2.55881713244150       -0.33708611023697
C           -2.61928693624599        0.29073304040844        0.38755574953268
N           -1.32438183727369       -0.14768267391839        0.45979376242530
C           -1.01013905775340       -0.99572504291971        1.41485308008080
C            0.42859426778013       -1.51362361482841        1.46528825573780
C            0.44031252952846       -2.97266158648539        0.98603001286244
C            0.96620456606234       -1.41467989848793        2.89839476910644
N            1.23325225139382       -0.68387672312859        0.56939297596006
C            2.54246771266688       -0.82784034225185        0.37013383089902
O            3.26101981782171       -1.68155347982769        0.87838557469622
C            3.08174676099368        0.20738795455763       -0.56327156240263
N            2.42684045633202        1.18617170823193       -1.10665791159355
N            3.31934466909529        1.89159665467280       -1.86073946428491
C            4.46292347224203        1.29792577833056       -1.72681947140606
C            5.75383029260966        1.67490227361483       -2.34358764476264
O            4.38201174677835        0.22822892503671       -0.92065595905330
N           -1.80626412500264       -1.50383186346164        2.35221238565650
C           -3.10450050585861       -1.09165175625153        2.36478116215279
O           -3.94357070034592       -1.49543337071459        3.21038569026840
C           -3.50059302479561       -0.15078196441145        1.33413751334785
O           -4.82851874357303        0.22800492936276        1.39400478524518
H           -0.39708390862351        1.99546738315675       -2.82071469961943
H           -0.07915465169480        1.65609704300683       -1.10148085929983
H           -1.15587365180769        3.00311359874452       -1.56371455233326
H           -5.14928067375993        0.95953896677293       -0.84572075452717
H           -4.40639558731174        1.40686297718183       -2.38753235910895
H           -4.18445104533105       -0.23611342153939       -1.74728847506754
H            1.44117931793125       -3.39597035694745        1.05227974227619
H            0.09785978395411       -3.03129149432402       -0.04706862646498
H           -0.23325742891202       -3.55351853041429        1.61560429581084
H            1.94074523196904       -1.89194648803711        2.98441594626462
H            0.26482157952706       -1.91200013376628        3.56856290152484
H            1.05616580196816       -0.36977770248753        3.19492050835423
H            0.71592921588446        0.04273322587715        0.07090763490022
H            6.49053861522562        1.88671256691467       -1.56931111283271
H            6.13178311614712        0.85335429394572       -2.95111233507740
H            5.61899364734649        2.55559811480985       -2.96611303913980
H           -5.20287087629782       -0.26836439986045        2.14637314424637
