46
 energy: -86.314505006306 gnorm: 0.000581354168 xtb: 6.5.1 (579679a)
C           -3.67721389150615        2.20272736099752        2.59336438506385
O           -3.68098910799545        1.16519124761800        1.58086433168319
C           -2.55155134042145        0.76164118252037        1.11533598852343
O           -1.44420464346426        1.09474552681706        1.38186986584792
C           -2.81834771178232       -0.38634374226817       -0.03105389436372
C           -4.16722984957920       -0.13254787297605       -0.69915643370637
N           -1.73784996275186       -0.21855844495390       -0.92870095826349
C           -0.60233601563579       -0.78640636726807       -0.76409652139627
C            0.46640300898450       -0.45842374178395       -1.79976069874293
C           -0.04483837050414        0.65485925368873       -2.72435537296155
C            0.78119975961515       -1.71828823087071       -2.61973968597799
N            1.64689964716252        0.03418014225759       -1.08486413766116
C            2.81401627009099        0.32840657271570       -1.71836368722092
O            3.06547508837104        0.07952175737081       -2.88160987879687
C            3.79357483625091        0.96863951326011       -0.81082506405894
N            4.99146858452903        1.37529438905093       -1.09360797888333
N            5.51124282659201        1.89497499026614        0.05158345943168
C            4.59977376707118        1.77414035246339        0.96605542586063
C            4.67652764022194        2.18419156241842        2.38432706349209
O            3.48612966087973        1.19543238356028        0.48556169932088
N           -0.36691327375787       -1.71388121733532        0.24993517992779
C            0.92527902174819       -2.34219387845219        0.54527094388174
C           -1.38285545229146       -2.19057379188604        1.02637230439220
O           -1.26911582964530       -3.08291333288460        1.84469050797831
C           -2.70307151250206       -1.55037349638489        0.81864635981671
O           -3.68345346432161       -1.99741557144492        1.50586825774886
H           -2.94444781548312        2.96564141367350        2.33131194523690
H           -3.42847047922539        1.75041803321100        3.55306833601994
H           -4.68544779660671        2.60925652960654        2.60407209717936
H           -4.97276545957141       -0.28385466945837        0.01506755029348
H           -4.19852945917229        0.88436886318194       -1.08316384971836
H           -4.27625874709351       -0.83156090235519       -1.52625080486324
H            0.73235707182245        0.90954426773275       -3.44326597370224
H           -0.29994347434088        1.53702105790081       -2.14037112756979
H           -0.92979319416483        0.31524431833605       -3.25854075755428
H            1.36786343605875       -1.45079908007189       -3.49671369069980
H           -0.15276338533174       -2.17296897012876       -2.94576328502820
H            1.34125069689423       -2.44140832241752       -2.03326896467677
H            1.48554890649036        0.46789947790462       -0.18966588999419
H            5.61057395568621        2.71113566104787        2.56528996227178
H            4.62349885939387        1.30556297391620        3.02717552590753
H            3.83383316306094        2.82937490692446        2.62927935668145
H            0.91781117638832       -3.35795785408052        0.15067401446049
H            1.73404463120523       -1.76644119588887        0.11216752490568
H            1.02811414463098       -2.38455519159207        1.62891164995396
H           -3.41449591599969       -2.73194586393935        2.10637291996060
