42
 energy: -83.625573217833 gnorm: 0.000334432165 xtb: 6.5.1 (579679a)
C           -3.04534960288934        2.23593245662146        1.64144428256086
O           -3.52864409094927        0.97226557144611        1.98327019206331
C           -2.43880622385295       -0.13468851187012        1.90742091658408
C           -3.10508670830340       -1.27234590282697        2.75791748168354
O           -1.29608380674726        0.26281556826376        2.36986153990617
C           -2.41702466018944       -0.56459126907366        0.38925338863619
N           -1.19322079284481       -0.40041710074648       -0.18643429552459
C           -0.98052644618490       -0.68626699775009       -1.42609983836458
C            0.40482113852620       -0.51046472302646       -2.02267484993638
C            0.40079504267388        0.59104603260218       -3.09353474929493
C            0.91974808253348       -1.83150592093678       -2.61294713881900
N            1.25234854466802       -0.10848153736103       -0.90182568963231
C            2.55827919815935        0.14792132838064       -0.97666745387291
O            3.24888006896619        0.09481269338530       -1.98783223339678
C            3.11523579655662        0.51822710553527        0.35786696229007
N            2.45706096673247        0.60773820638286        1.47098953059677
N            3.35448287885107        0.96889271812865        2.43340796357693
C            4.50278175566485        1.07592973051079        1.84420109835562
C            5.80044473493749        1.44112153743381        2.45421767659041
O            4.42188353558507        0.80503513616017        0.53221374640109
N           -1.99560024529587       -1.15234179295850       -2.23027919459031
C           -3.27413130358310       -1.37936272500092       -1.77035227429916
O           -4.12271632106318       -1.80523523258718       -2.57396059890698
C           -3.51651915674029       -1.08197591224545       -0.32435178059274
O           -4.67101599727224       -1.31311890036742        0.14811753567421
H           -2.84751985092120        2.33651015506352        0.55717418815931
H           -3.79846249331237        2.98561300713771        1.91485494564572
H           -2.11119164664326        2.48514556430887        2.17621023159809
H           -3.09445295646956       -0.96181255945871        3.80317439021432
H           -2.51069028306298       -2.17997657702277        2.65439466049089
H           -4.13097832119174       -1.46730342156987        2.45046640511784
H            0.08347549637911        1.53781998247183       -2.65766115535085
H            1.39598406363339        0.71096944827204       -3.51758438410074
H           -0.28803212138711        0.32061074211015       -3.89130299813944
H            1.91746216249189       -1.69747170392023       -3.02673356602988
H            0.25615305383143       -2.16130225026272       -3.40965777030765
H            0.95469541322283       -2.59954664721066       -1.84102086383877
H            0.75827868715573       -0.02838694050859       -0.00350425793198
H            6.21370798394278        2.31830135324919        1.95795618061376
H            6.51126049646326        0.62372472352903        2.33755860530272
H            5.66194346980345        1.65210190420438        3.51146871738548
H           -1.82366854186925       -1.35594033849179       -3.19901454651270
