42
 energy: -83.612444799052 gnorm: 0.000451869531 xtb: 6.5.1 (579679a)
C            4.41583328974399        2.92831027605725        0.27206138153434
O            3.43221874103978        1.92470056938782        0.37620287505376
C            3.69360998468860        0.75518154441349       -0.38689670696229
O            4.74516225090653        0.73646765656914       -1.05960548398118
C            2.68383937477030       -0.20708163976744       -0.29262075885414
N            1.63174498532207        0.07719050894174        0.54898320530947
C            0.57646292636592       -0.65169719671466        0.57456271820694
C           -0.53427580296465       -0.38390260696941        1.56732567449079
C           -0.16846831966729        0.83330811991417        2.42368631779155
C           -0.76613259754929       -1.62267898086335        2.44641201124209
N           -1.77017361529731       -0.09398773594229        0.80450566896100
C           -2.95137181728258        0.20877190285365        1.37190218238824
O           -3.17859186502604        0.24001058096998        2.57983121918194
C           -4.01231094391314        0.51493323098999        0.38600056789472
N           -5.24302242743707        0.86927032820576        0.63368913058556
N           -5.84994288438617        1.05445331319478       -0.57532561038733
C           -4.96062748991510        0.80337936873643       -1.48368253568618
C           -5.13192996257509        0.85514503631435       -2.95293959220635
O           -3.77593098034407        0.45726097649232       -0.94901677895944
N            0.37217063959556       -1.71713972031104       -0.32943268012357
C            1.30594831554318       -2.00036121931639       -1.29248946110277
O            0.95986816169011       -2.61840965238982       -2.30587936524627
C            2.77780651409719       -1.64253952051968       -0.89810055927019
C            3.59760315568549       -1.62624475473736       -2.22932478177978
O            3.19558730496107       -2.58109225535925       -0.03187700656261
H            5.39215934013462        2.58023244059961        0.63633483292607
H            4.09023803280423        3.77240961641048        0.88358761148911
H            4.53901447888963        3.26730471133799       -0.76536637196279
H            0.78030387966888        0.64631841949037        2.92632521045053
H           -0.05632886984307        1.71159457569427        1.78843286675406
H           -0.93502405979098        1.02705251355869        3.17125083155475
H           -1.53990305470880       -1.43327971033010        3.18817257953240
H           -1.06971834306327       -2.46729035701613        1.82936132241461
H            0.15951512133144       -1.87612748765904        2.96295530635640
H           -1.70347014706243       -0.04150838143217       -0.19984194453323
H           -4.37675894448057        1.50270810421709       -3.39677002711572
H           -5.01477081804835       -0.14174492322211       -3.37831445473722
H           -6.12261663382820        1.23366089207822       -3.19036109664967
H           -0.57618896829754       -1.98514535416157       -0.53122477890358
H            4.65867557751199       -1.53062968200236       -2.00409144194982
H            3.44052565520625       -2.57214180080883       -2.75073230548450
H            3.28926681552509       -0.80665570691160       -2.87952677165337
