42
 energy: -83.623887965535 gnorm: 0.000498860221 xtb: 6.5.1 (579679a)
C           -3.92818590806681        3.52667012669056       -0.97382576701253
O           -3.79414674251520        2.21301774708738       -0.46607449124686
C           -2.51099623894499        1.73185200395757       -0.40222212512593
O           -1.58181681104725        2.45026738643625       -0.77827613108701
C           -2.37362870610566        0.36970951386469        0.09590220585519
C           -3.50050205692081       -0.43595371460339        0.43910621849261
O           -4.70637283812414       -0.03932141998792        0.51136391267435
C           -3.20349130987968       -1.87629123325320        0.68000861192167
O           -4.06616253498063       -2.74903236635269        0.86896275720665
N           -1.88664729422896       -2.26214140998496        0.57928409912014
C           -0.78313370169965       -1.31975578047595        0.70588043256823
C           -0.43647606380054       -1.15886406632442        2.21300637647285
C            0.44969473117385       -1.88123346950322       -0.08988016688198
C            1.03364596695300       -3.15399675403420        0.53380660661742
C            0.01701801575414       -2.14846061620329       -1.54028188608053
N            1.43958735467803       -0.80835201254669       -0.05927847501243
C            2.68446653711065       -0.89417965319644       -0.60312801113743
O            3.15992379475190       -1.92779225937229       -1.10925015447922
C            3.45629641911078        0.33367037856689       -0.50057205088913
N            4.67209062809679        0.55875329623960       -0.97113041840303
N            4.99301619444038        1.84234741022793       -0.62481046385451
C            3.98367765363896        2.32759641965345        0.02365424300549
C            3.86783228030346        3.68329874785270        0.61358762928031
O            2.96929622383468        1.44358069727621        0.14384814779210
N           -1.07420839680843       -0.03972084500045        0.14211425580364
H           -3.55170101747137        3.59363330870233       -2.00114829715429
H           -4.99007584701993        3.77385766582921       -0.96003209434800
H           -3.37888641320688        4.24664128747760       -0.35655196183587
H           -1.70327583702680       -3.19810120037221        0.90539107315156
H           -0.32386634373525       -2.12936529874082        2.69192619991610
H            0.48739507933538       -0.59388136397476        2.32140126365012
H           -1.24020780315427       -0.61556021912542        2.70842236317127
H            1.76887905291107       -3.60259075865765       -0.13344966398050
H            1.52317057842903       -2.92970305875670        1.48034717289842
H            0.24620797054054       -3.88501046744819        0.71031882466055
H            0.86952549263273       -2.46235091278652       -2.14105219524250
H           -0.73732123597898       -2.93464050032370       -1.56100488782278
H           -0.40900433560948       -1.23928327679686       -1.96785870017119
H            1.04530100101371        0.11613558399447        0.10433904005897
H            3.09188255920176        4.25786241098425        0.10664207554858
H            3.60364301776325        3.61406136177868        1.66849927126052
H            4.81755388463144        4.20262731120304        0.51279016059377
