47
 energy: -80.232435619847 gnorm: 0.000554390594 xtb: 6.5.1 (579679a)
C           -4.86950549891635       -1.11236623396169       -1.05258973800378
N           -3.51505206609890       -1.02537895658888       -0.50518016218362
C           -3.04663763378653        0.06011730831329        0.19522358430543
C           -3.92242708291280        1.26885499402127        0.50600843739214
C           -4.78236763132175        0.94416813154965        1.73680259018853
C           -3.02167337744905        2.47543462058853        0.82136984809934
N           -4.79274194952327        1.58622003284197       -0.62171603856266
N           -1.84745417994020        0.09147592013950        0.68089074098385
C           -0.96613985168757       -0.94060319358950        0.51335458030099
C            0.36646352534542       -0.70698698821821        1.17040548952326
O            0.56149911325335        0.27648768021273        1.87665645744911
N            1.30925141955425       -1.63841146635223        0.94402795589515
C            2.65862468722847       -1.49139250187786        1.49011752894842
C            3.54178372898699       -0.72211404328775        0.53057811811220
C            4.32837631253607       -1.39353199690721       -0.40108351689897
C            5.11589763750701       -0.68601948674404       -1.29788896906035
C            5.13464504896112        0.70830166189191       -1.28793094864438
C            6.00722509598966        1.47044940036653       -2.23800474864312
F            8.66424830919148        2.04354174712014       -0.88555798996339
C            4.34032616621556        1.37536390726363       -0.35461909328348
C            3.55197143634616        0.67069396541174        0.54220293700331
C           -1.36218121685036       -2.03531658313358       -0.19757469557649
O           -0.58932041360568       -3.11694097060557       -0.43779840287507
C           -2.69864879669956       -2.11050821564137       -0.75679608699006
O           -3.06903656951024       -3.09072039961207       -1.40377101693634
H           -4.93817271664755       -0.51667263423495       -1.96120917883907
H           -5.07526371472478       -2.15761855932854       -1.28210981606913
H           -5.59150255488533       -0.74708495500955       -0.32958710845776
H           -5.47188802619721        0.12778844388263        1.52999007791846
H           -4.14287966178224        0.65973346918801        2.57207397124701
H           -5.36120898312378        1.82217994877027        2.01914834062821
H           -2.36164127688242        2.68071304062402       -0.02069099902682
H           -3.64443065621280        3.34929990604215        1.00292769459543
H           -2.41455412360595        2.27874351317785        1.70478708565936
H           -5.52096212425382        2.21478512745308       -0.31528666478889
H           -4.26394031236499        2.05962078551165       -1.34302558156843
H            1.14396336538988       -2.41016235865621        0.32138293099314
H            2.57970939473413       -0.96636369553756        2.44785459006074
H            3.05586584604224       -2.49457741421131        1.66370439094790
H            4.32396352756700       -2.47760538929804       -0.42796887441330
H            5.71501765234812       -1.22987286986313       -2.02113028351274
H            6.98262391023964        1.67137835784090       -1.76364004675791
H            6.18448071472984        0.89863517994341       -3.14908606407399
H            5.55558173574057        2.42729254641960       -2.50145848354150
H            4.33016363868195        2.46083028701109       -0.33228665717180
H            2.93295013938067        1.20513604412678        1.25556765924753
H           -1.11500398699798       -3.75699910683660       -0.95444884358276
