47
 energy: -80.221274808565 gnorm: 0.000608252761 xtb: 6.5.1 (579679a)
C           -3.46116417906003        1.09765015828377        2.16164677622363
N           -2.43168346548929        0.40701326166230        1.39066972429715
C           -1.59107717428146       -0.42462668119033        2.09764850061260
O           -1.81307222591167       -0.69490364477708        3.30308227427501
C           -0.45975717910983       -0.92726728998000        1.39872629681041
O            0.35482910186270       -1.80503327400724        2.13986053601867
C           -0.12106106199085       -0.42276471206523        0.14583190771809
C            1.16631963508345       -0.71088790797847       -0.57033581804521
O            1.39990272443474       -0.27715136670621       -1.70078338004220
N            2.07013719263011       -1.49992602580512        0.06529562317138
C            3.38721491617601       -1.72602798880541       -0.50936790014773
C            4.34891783138895       -0.62742816116665       -0.10316866656172
C            5.25021231029114       -0.82959018563282        0.93936756157395
C            6.11405832807245        0.18243831677869        1.33791998361200
C            6.05212602842974        1.39315727742791        0.67365213955270
F            6.88288769807101        2.38202822706364        1.05380209020028
C            5.17332587433789        1.62893529057503       -0.36869405157368
C            4.31934833674616        0.60564505021840       -0.75371444697615
N           -0.90412285972371        0.41259645309995       -0.52104901520974
C           -2.22582625931060        0.72305601215954       -0.03693147846943
C           -2.42584319421548        2.24061783070547       -0.26200485242621
C           -3.26240582430983       -0.08890857886155       -0.92120184055542
C           -3.12196523493367       -1.59499928162224       -0.65632073383852
C           -3.00020712401604        0.18975462953006       -2.40545558960173
N           -4.63266013263169        0.33963677084989       -0.60492812221661
H           -3.86248404749484        0.40915136996700        2.90964307820527
H           -4.27346129372737        1.42375895068856        1.51522761361916
H           -3.04907243657354        1.97098356025881        2.68230845933647
H           -0.06945560172354       -1.86933728303995        3.01410014407468
H            1.95549502486944       -1.74162762131114        1.03837043169591
H            3.75168063452095       -2.69562932247065       -0.16049238472406
H            3.28730997571297       -1.75478988466235       -1.59997457650773
H            5.28707832949598       -1.78737338513318        1.44550871608109
H            6.82073710772357        0.03495157616249        2.14383312463029
H            5.16454548398089        2.59019174965858       -0.86654356979145
H            3.62357300693739        0.76625235929356       -1.57093774613484
H           -3.48017122199235        2.51294790552711       -0.25464235393462
H           -1.99798461022246        2.51268357943243       -1.22601950378704
H           -1.90281309286531        2.80155069970545        0.51187194774307
H           -3.29444110179646       -1.81568118111082        0.39715688128243
H           -2.12359255889323       -1.93894529283640       -0.92961817522598
H           -3.85420069573675       -2.14462616950729       -1.24746032556855
H           -3.57661259824009       -0.49781388863050       -3.02512025103522
H           -3.28977028152123        1.20739413003808       -2.66696794641708
H           -1.93930762938442        0.05775114304384       -2.62651633468510
H           -5.03159572636051       -0.27240038596598        0.09644242526550
H           -5.21388972924018        0.25759021113313       -1.42671617252116
