43
 energy: -83.888244882245 gnorm: 0.000935346118 xtb: 6.5.1 (579679a)
C           -6.12742205492349        1.48145309202324       -0.12170255347066
O           -5.01939728574279        0.65013083695136       -0.41759184866923
C           -3.86069797241981        0.92713130295170        0.30482448330891
O           -3.87276390481998        1.86158233387653        1.11872025322718
C           -2.76980797290710        0.07793384348229        0.01325077664215
N           -1.64285867035308        0.32075213455295        0.74840750718882
C           -0.57234414638963       -0.36941396272132        0.62765466527663
C            0.64819595281589       -0.09990990120458        1.47722718678689
C            0.46019621139595        1.21387629741575        2.24237863218672
C            0.88504125651302       -1.26752953497624        2.44757736526516
N            1.80637061227868        0.01845663961463        0.56832584933561
C            3.06747833022852        0.23558243577486        0.97547380240085
O            3.44217325001517        0.34937311054440        2.13164840951167
C            3.99379294702847        0.32767671624969       -0.18889884256329
N            3.65634098802628        0.28517709067351       -1.44231827092306
N            4.80682747876602        0.40978104157171       -2.16437875026830
C            5.77161905048569        0.52040915776852       -1.30383945398663
C            7.21680835174410        0.67124802880963       -1.58298545848718
O            5.32313341459426        0.47796161428220       -0.04013558500589
N           -0.48636987528522       -1.44376427862211       -0.28589633125535
C           -1.48930950611501       -1.81044235144697       -1.11110332007844
O           -1.32727786993216       -2.72398696115825       -1.91945036967665
C           -2.83412520684732       -1.05152600381739       -1.00089779379708
C           -3.18013557928534       -0.57072664280218       -2.42314486996164
O           -3.83873934511577       -2.02104266811989       -0.65305424389347
H           -6.96654959102633        1.12679798118805       -0.72163415721727
H           -5.91678230158753        2.52772769205746       -0.37434679693162
H           -6.39080003302557        1.42556344318950        0.94113378968442
H           -0.43135818766289        1.13942997025982        2.86400296319352
H            1.32197566630497        1.41424291700193        2.87566534874308
H            0.32873756758132        2.03778541947807        1.54167380468713
H            0.00013724791741       -1.40146126196741        3.06850628648551
H            1.06841033588009       -2.18538068190858        1.89149380127004
H            1.74005357557694       -1.06795115283870        3.09093292353417
H            1.63601769124643       -0.02880901960035       -0.42588342524747
H            7.60975166748318        1.54303395738300       -1.06044691484707
H            7.37263509620192        0.78316317103590       -2.65307603547120
H            7.75802050440360       -0.20619208079266       -1.22840057131464
H            0.37305193531794       -1.96209739240048       -0.35733785612241
H           -2.47873187158831        0.20431312813978       -2.72834175032406
H           -3.11258957712840       -1.40937059129580       -3.11698437643131
H           -4.19133900278694       -0.17181714202476       -2.45286086743993
H           -3.77737117685318       -2.23916172856972        0.28247359466060
