42
 energy: -83.634936083475 gnorm: 0.000246482145 xtb: 6.5.1 (579679a)
C           -5.94425198443307       -1.50504602911873        0.38660614013860
O           -4.73583529013214       -0.76913055014133        0.29358423502009
C           -4.75553544152736        0.29404106982308       -0.57540117659679
O           -5.77529732525173        0.55062930344283       -1.20095796507603
C           -3.48770077512408        0.99514027563737       -0.62612817135784
N           -2.49761162972832        0.48602845256586        0.19923882549671
C           -1.33367389456462        1.02272930265443        0.22245275353760
C           -0.25287092472966        0.54746831011028        1.17765367991186
C           -0.33197137309709        1.45474572893712        2.41917522031663
C           -0.51252985469152       -0.91650143625787        1.56476861311411
N            1.02913551481733        0.71823632841906        0.48871428879008
C            2.21762203064976        0.19231209216909        1.15440021501025
O            2.33083614401786        0.26010925748233        2.42009912703336
C            3.10500830284579       -0.42018082884177        0.31917497429317
O            3.02438462764276       -0.39958855656855       -1.10659636557279
C            4.25152215061728       -0.73728886186314       -1.51664864713963
C            4.50947334011991       -0.81771322104422       -2.98264995925869
N            5.12911337119273       -0.96833009124119       -0.61637972058869
N            4.49011148016215       -0.76096271426747        0.65890374769376
C            4.58402013780860       -2.01494270496354        1.42274380521925
N           -1.02542589545713        2.12130174915593       -0.55334947663222
C           -1.90362307817124        2.73337377431432       -1.40087224751657
O           -1.54542904197511        3.71360650600448       -2.05707083130734
C           -3.28904897512945        2.12943384126774       -1.45692902994406
O           -4.13972663158488        2.64988668529463       -2.20631105516442
H           -5.77171985666496       -2.31833409061496        1.09067287522497
H           -6.22732381929546       -1.91696343951687       -0.58784665994366
H           -6.76080825831763       -0.87198377603255        0.74992096040486
H           -1.34731401321837        1.44183909295812        2.81675411039975
H            0.35277653046626        1.11215084920646        3.19279546782149
H           -0.07166943029780        2.47754366336360        2.14667542710567
H           -1.52628654653687       -1.01919072340767        1.95222334010532
H           -0.40718296492759       -1.55947671450909        0.69100943126967
H            0.19556228606152       -1.23469141419241        2.32878601057178
H            0.96858926198764        0.29832215338042       -0.43623182359219
H            3.83146130505178       -1.53716436234283       -3.44099354191332
H            5.53673898760987       -1.12760764352518       -3.15813188255305
H            4.33968173826513        0.15262836449120       -3.44947146906525
H            5.63600215307177       -2.24626484907420        1.58644119618871
H            4.10386787648815       -2.84657399967377        0.89640627207531
H            4.09049528152608       -1.85077457753263        2.38068863201649
H           -0.08356751557480        2.48718778409156       -0.50888232554197
