42
 energy: -83.599939462193 gnorm: 0.000687004950 xtb: 6.5.1 (579679a)
C           -3.89798475782492        3.41334474611479       -0.91853663711510
O           -3.71893449722364        2.09543461140757       -0.41275395544950
C           -2.46562773284740        1.56938629732036       -0.57462395445250
O           -1.60573334882893        2.22643351325835       -1.14016443103402
C           -2.28150679953723        0.21472117700951       -0.02674972854329
C           -3.30584975650450       -0.64756497098509        0.34212094551800
O           -4.65466902095574       -0.32519567768304        0.34132200365037
C           -3.00186816149261       -2.09536136339775        0.53813234288274
O           -3.94491904328688       -2.93780756239602        0.57145086709128
N           -1.72610082189985       -2.44955865073758        0.61050332046223
C           -0.71973635079073       -1.41645562512472        0.68757301904148
C           -0.44046554149102       -1.11771453727745        2.19450253664822
C            0.57768078423944       -1.98440737576583        0.00694742639628
C            1.08850457291870       -3.23368024391792        0.72995734037359
C            0.24438428179274       -2.31975565757967       -1.45456703883543
N            1.56262916125862       -0.90158733751644        0.03311366547790
C            2.86047567771751       -1.01624485501259       -0.30333442650907
O            3.43175112847624       -2.07775412141616       -0.59594363200980
C            3.59781105351170        0.25481280069196       -0.26573547782516
N            4.85632561301499        0.45096257548053       -0.58990961088916
N            5.10899336422688        1.78103228339698       -0.39442534168768
C            4.00946402621511        2.31592543691725        0.03075200298349
C            3.78653999103903        3.73391691727786        0.39833676649105
O            3.00887955774930        1.41898228196146        0.13574223165417
N           -0.98215058546026       -0.15076116235105        0.02883323436135
H           -3.75550388999142        3.43363729560108       -2.00345599238060
H           -4.91392825749133        3.71726825817418       -0.67400841073673
H           -3.18472796123346        4.10175586655074       -0.45515568473392
H           -4.79372250495091        0.60967885936948        0.14334780995711
H           -1.28140810560485       -0.55892132873902        2.60445930532013
H           -0.33556541900833       -2.04579886049773        2.75554402204280
H            0.46342183383063       -0.51964774708656        2.30655496088474
H            1.81526330568587       -3.77476062509841        0.12485235728365
H            1.55794178430123       -2.97427632816969        1.67804321722908
H            0.23727432624903       -3.88953515256938        0.92373076698525
H            1.12247160839377       -2.69809279231909       -1.97810738446406
H           -0.54112395690004       -3.07676680319401       -1.47734221060202
H           -0.11434543782664       -1.42301277706703       -1.96219158325772
H            1.14954218295723        0.02720751895269        0.08493331587517
H            3.00721005047409        4.17194770306038       -0.22536719600602
H            3.46904389903785        3.80710656900423        1.43876493898906
H            4.71026074803992        4.29110384431981        0.26362929891249
