16
 energy: -34.208241566302 gnorm: 0.000916245391 xtb: 6.5.1 (579679a)
C            3.22006040349978        0.33024644209193        0.31500267987083
C            1.79673802597820       -0.05945783454607        0.21806072425908
N            1.31381012266141       -1.25025733907862        0.01867659864803
N           -0.03690293263285       -1.12347292320494        0.00500323693113
C           -0.30343431024269        0.13631615966481        0.19446058249702
C           -1.64578956650027        0.75762040943313        0.27283726009141
C           -2.77290854652109       -0.20457434331810        0.05785564443554
O           -1.79317643876914        1.93863180421780        0.49014050890641
Cl          -2.21707541119172       -1.34419676514107       -3.36918533061401
O            0.83099651365180        0.85706875286353        0.33741563487949
H            3.36413258189777        1.00248048738090        1.15953514309555
H            3.52756951149758        0.85473510250228       -0.59050064365709
H            3.83621402474449       -0.55696742926076        0.43961379451953
H           -3.72086634192453        0.26643332198816        0.30415369964064
H           -2.62508392576726       -1.09954646308015        0.65843421710506
H           -2.77428271038164       -0.50506038251303       -0.99312675061559
