42
 energy: -82.985595270501 gnorm: 0.000757139453 xtb: 6.5.1 (579679a)
C           -3.69225135739842        3.43122833270262       -1.41636076875375
O           -3.50799900205017        2.12270317645774       -0.85952470930443
C           -2.33884535134757        1.87497943952798       -0.29994859348138
O           -1.42926663677763        2.66160963438102       -0.23130336039889
C           -2.24226538655980        0.45836538506584        0.23577503441038
C           -3.45868569556655       -0.31991688422749        0.60289945773207
O           -4.52995138465442        0.17765075749962        0.83687710936008
C           -3.22853318572826       -1.82969738670788        0.70891289316356
O           -4.13874344471949       -2.63323799950748        0.70326267977498
N           -1.93157633526738       -2.19250440245890        0.79257376523273
C           -0.78505416740202       -1.30895658074177        0.86649933402650
C           -0.36787974907090       -1.14808589771817        2.33692971479560
C            0.36306824353365       -1.87287431303847       -0.03513503538554
C            0.93715630976829       -3.18090780753485        0.51115528036890
C           -0.16245731912683       -2.05938715706518       -1.46359831202985
N            1.39812418931987       -0.83987618907015       -0.02773985767052
C            2.56826883677687       -0.94315665014786       -0.69001783281858
O            2.95775929829675       -1.92526679551858       -1.29968970380992
C            3.38156718305130        0.29573966517613       -0.58728274681083
N            4.53843629107902        0.53230810531969       -1.12259926812617
N            4.89225098843524        1.79562348518734       -0.75388316835580
C            3.92958657885888        2.25299341181520       -0.01529965759046
C            3.84007221319486        3.57865108133593        0.63433424438997
O            2.94144743565548        1.35440104330285        0.12817890640360
N           -1.05988125525079        0.00281489661285        0.37585370075303
H           -2.98287710665062        3.58890320448763       -2.23113174648748
H           -4.71388380920523        3.46855247358403       -1.78776116575946
H           -3.53465940737632        4.18823950019469       -0.64572331893813
H           -1.76358014411245       -3.16890141062467        0.98274844318651
H           -0.20885504457157       -2.12656311689547        2.78235141581266
H            0.54655157354272       -0.56351514243402        2.40382576714634
H           -1.16234264040676       -0.63671957210384        2.87720522374151
H            1.65738167051262       -3.58560116270593       -0.19847507306895
H            1.44272516604138       -3.01357686463342        1.46006437022233
H            0.14539943345285       -3.91328815510112        0.65194667335125
H            0.64484813041877       -2.40195352243179       -2.10897117528846
H           -0.95885171638075       -2.80100740300284       -1.47077083749281
H           -0.54996786099454       -1.11570454274545       -1.84477127987824
H            1.12791457814078        0.06839262505054        0.32274054608997
H            2.97650872403849        4.12359958488145        0.25388260868212
H            3.71406427341344        3.45772342739743        1.70959089658951
H            4.74527788306880        4.14621672644030        0.43315854619892
