43
 energy: -83.116193731867 gnorm: 0.000697350956 xtb: 6.5.1 (579679a)
C            6.81478371329582        1.34984876787931        0.14812452729137
O            5.64179326287811        0.52436312334193        0.23684807979341
C            4.55249449498118        0.98508490191042       -0.39179611676997
O            4.53714752666953        2.02958852631527       -0.99689565420056
C            3.37350375763323        0.08207686731089       -0.26721098414502
N            2.26039389135713        0.57510498800337       -0.90698331108104
C            1.16020392622280       -0.09248737178311       -0.88913867563375
C           -0.04504186077634        0.46230110181086       -1.63283614483753
C           -0.53770783158082       -0.52883961614620       -2.69251794645543
C            0.33055717704929        1.79243400480855       -2.28767821448949
N           -1.12916805005696        0.76098082587631       -0.67036509418737
C           -1.90888508063964       -0.14344643557688       -0.07881637098169
O           -1.80734104661569       -1.35750528602827       -0.12911092218614
C           -2.99190655919399        0.50613298212131        0.72004577959631
N           -3.19737583354399        1.74622609099195        0.95585070617980
N           -4.31553230585869        1.86801571053915        1.73252140565740
C           -4.78882051664737        0.70362570658880        1.96660025050623
C           -5.97831596780487        0.31804835464735        2.74092053434003
O           -3.98074549538479       -0.25493680316465        1.34301648958344
C           -4.11068893863905       -1.71507486354512        1.32054468305531
N            1.05506753407787       -1.29409307926034       -0.25898192934387
C            2.08803701003528       -1.89531204988902        0.43331049710403
O            1.92973651516216       -2.96170296090581        0.99839306099138
C            3.33638776570207       -1.11739944486037        0.39726908169982
O            4.35401209224982       -1.68509059879449        1.04895106095354
H            6.59871265250668        2.34354641916250        0.54616698361762
H            7.58469411447905        0.86139794179425        0.74009306556803
H            7.12915278096146        1.43375513979708       -0.89433114417781
H           -0.78497295696293       -1.49208687839498       -2.25409195601367
H           -1.42346189633780       -0.12740847798975       -3.18122259949989
H            0.24642089541662       -0.67181833764202       -3.43490141848762
H            1.12472864252411        1.62693199487871       -3.01427014248657
H           -0.53527943780408        2.21341134595930       -2.79480830113527
H            0.68907976915996        2.49520233815926       -1.53708034746855
H           -1.35335107405704        1.73534398392570       -0.53104382769718
H           -6.68240458509589       -0.22555684209764        2.11018680624022
H           -5.69910248588230       -0.32665699043753        3.57503105087445
H           -6.45348077354359        1.22081043575651        3.12114493760039
H           -3.22441484073950       -2.12657177544379        1.79954538113206
H           -5.01622987918645       -1.95457295783518        1.86900430318392
H           -4.17629483291630       -2.01738692056133        0.27754179534187
H            0.16488935873790       -1.77754223328681       -0.24760090431852
H            5.16872436813521       -1.15344062790886        1.01057252529821
