47
 energy: -80.188098021639 gnorm: 0.000280140538 xtb: 6.5.1 (579679a)
C            4.18756671283471        1.01746490709706        2.24051951819031
N            2.98057403900869        0.84027494119976        1.43783704953281
C            2.90236241785191        0.01889285636682        0.33454333537600
C            4.10329857251460       -0.77886156317143       -0.16437282501684
C            4.99675197864369        0.13803169393145       -1.01331372676582
C            3.60716171338728       -1.94489414280014       -1.03714476238972
N            4.87847255497728       -1.30487576101578        0.95702563175966
N            1.82312111216799       -0.08477999002952       -0.36639615490965
C            0.66687858022212        0.58631717991898       -0.04668402850550
C           -0.44631248194597        0.34305815373712       -0.99244224794186
O           -0.30895799234764       -0.38829503534546       -1.98379018118384
N           -1.60846950847659        0.99380753233298       -0.74135455909318
C           -2.80725560516634        0.74002517509922       -1.50390405527349
C           -3.75369033637147       -0.35484622598300       -0.84713002091496
C           -2.95545479533660       -1.67808372141545       -0.76229607627926
C           -4.17781387607203        0.09230667741347        0.52873081059213
C           -5.46258684435774        0.43815194837749        0.83705738057513
C           -6.46937029887337        0.33288854212251       -0.12461312024667
F           -7.75992794414005        0.67582912258416        0.21485472002047
C           -6.21158642597280       -0.16060960709917       -1.40336931289481
C           -4.94223200267047       -0.52158076632365       -1.76098287254046
C            0.67502560811157        1.38553712416599        1.08020072813638
O           -0.40886686695468        2.08673629609842        1.52509459992735
C            1.85389250837837        1.53773420435958        1.87633056087558
O            1.88316022919659        2.25514475419504        2.88882809959689
H            5.06357953085379        1.08340990240161        1.60258884666576
H            4.08378414781776        1.94072249469568        2.81175411243472
H            4.30934333541877        0.17942375038021        2.92659606382715
H            4.42394089683794        0.54554038039512       -1.84620880697075
H            5.38976115817331        0.96366149313567       -0.42262202924557
H            5.83572887398116       -0.43191061090647       -1.40984922589392
H            4.46060570737633       -2.52358420439604       -1.38573345251168
H            3.05407646094024       -1.56911554574678       -1.89794066506299
H            2.95391797229936       -2.59549728030631       -0.45683866187142
H            4.37805456291925       -2.07204744419097        1.38751500658589
H            5.75429670863281       -1.67130511988294        0.61355377523266
H           -1.71839319256695        1.51253744916643        0.11519809132683
H           -3.37739574885021        1.67008374882579       -1.58121666602010
H           -2.52728389533948        0.41120712138812       -2.51033304231940
H           -3.61857962911595       -2.47441896971536       -0.42379611905443
H           -2.13395494175569       -1.58584429951828       -0.05146893979626
H           -2.54901550239888       -1.94887433770598       -1.73778982829500
H           -3.39897311478461        0.15518944914909        1.28237398840357
H           -5.71621227490327        0.77872040012674        1.83621766251848
H           -7.03335469578800       -0.27608596456488       -2.10338955110547
H           -4.74607930400845       -0.92393969087914       -2.74981989152927
H           -0.13358610435721        2.56675498233631        2.32766384205005
