42
 energy: -83.636960042010 gnorm: 0.000288755307 xtb: 6.5.1 (579679a)
C            6.16701557050652        1.61607388273900       -1.04637183388724
O            4.85654798790922        1.13039353852291       -0.78062694280968
C            4.75903802674271        0.19805709375461        0.18839333395835
O            5.75310233774155       -0.19356360481908        0.79596815223604
C            3.39778986346690       -0.27849916965588        0.42983438789594
N            2.39489725022347        0.24971137092525       -0.33628857059750
C            1.17492520230663       -0.19781971181091       -0.10378358481931
C            0.09123403498950        0.40923083718027       -0.99435630476708
C            0.09996847818495        1.93584779120626       -0.81552280369370
C            0.40698466470509        0.04944662820644       -2.45612668240887
N           -1.19961045487154       -0.13582908330275       -0.61228185908632
C           -2.36973943504120        0.14364120456922       -1.18603634833169
O           -2.52798449001739        0.94435951423241       -2.11047419825255
C           -3.55159683290425       -0.69283032052904       -0.57799877020242
C           -4.16067242648423       -1.51380784918795       -1.73330212682220
N           -3.07800861367377       -1.54170719011455        0.50180258073410
N           -3.75335994812948       -1.13217801519362        1.62107364235124
C           -4.55821954281662       -0.18025709741040        1.32616849738087
C           -5.49182634869541        0.53944165621015        2.23617030148684
O           -4.53253713422084        0.18471644587537       -0.02554088283043
N            0.80961603236038       -1.10094613221444        0.79423008210126
C            1.74502342758795       -1.67980697582503        1.60270586068080
O            1.44093399977785       -2.53143398500361        2.45797108807697
C            3.12555922504129       -1.23101102788072        1.39301220463167
O            4.08282558359598       -1.79104454386392        2.17711249978160
H            6.59121628011509        2.08367149223418       -0.15333820256346
H            6.82147129130735        0.79907546319334       -1.36267483209967
H            6.07801400562079        2.35129371610501       -1.84426094472075
H           -0.61225141659730        2.40549545573616       -1.49276591373986
H            1.09862652446118        2.31309595333098       -1.03238664363368
H           -0.15893276790161        2.19703368822396        0.21066890174588
H           -0.30354386730416        0.52502049026720       -3.13103356257532
H            1.41190349759356        0.39307483862382       -2.69848578064425
H            0.36126619420447       -1.03069776687048       -2.59562004066985
H           -1.22118379985711       -0.84427492071835        0.13616513737656
H           -4.47424568160882       -0.85182455025820       -2.53929006985902
H           -5.02181098993630       -2.06712334995822       -1.36421671235272
H           -3.41825547311281       -2.21657281436530       -2.10725869086046
H           -5.27314901431143        1.60960297095811        2.26200185681082
H           -5.39417025776027        0.13546226863095        3.24261944316504
H           -6.52690498058336        0.42049677171956        1.90826175005531
H            4.96004499738319       -1.42301296346388        1.94859358175594
