21
 energy: -30.762823734786 gnorm: 0.000177289350 xtb: 6.5.1 (579679a)
C           -2.61323015862507        0.48131495024941       -0.20530873998285
C           -1.75787986920052       -0.70386205412330        0.33954118022118
F           -2.64424544631209       -1.56896415033499        0.92086863751161
C           -0.82933898285548       -0.13133985389970        1.33925567636540
C            0.43565100315578        0.20457163057721        0.98287260245424
C            0.96191395356883       -0.17049535830630       -0.27962057302837
C            2.32686366157770        0.21432296123129       -0.68328096297332
N            3.00081669658061        1.08143415246477        0.24270129881734
C            0.18194748139808       -0.98115489032526       -1.15017007378001
C           -1.09330460118383       -1.31435483328780       -0.83619561430386
H           -1.97824698856747        1.22164628143291       -0.68265101060483
H           -3.32672682618245        0.08324369390308       -0.92315173805163
H           -3.14409650737131        0.92872386370938        0.63198433191265
H           -1.22380917196340        0.07842713615602        2.32653881046224
H            1.09609812605119        0.70043734463956        1.68477465326130
H            2.92209752183693       -0.69461771177473       -0.83777493076528
H            2.25401817049256        0.68314740470995       -1.67871334069438
H            3.95301320206731        1.23051831316716       -0.05431612003239
H            2.53141822219185        1.97034300180882        0.32371783040417
H            0.64049969105834       -1.35840490966917       -2.05696126684326
H           -1.69346117771741       -1.95493597232793       -1.47127165034902
