42
 energy: -83.635350356626 gnorm: 0.000318366971 xtb: 6.5.1 (579679a)
C           -1.77976376443626        3.79652730347319       -0.10694104142536
O           -1.53244535043579        2.42645146800840       -0.32170580941443
C           -2.69495837830631        1.60712111883598       -0.28638636640168
O           -3.79279277454041        2.16764194830707       -0.06605012528130
C           -2.43572427467825        0.25703262342296       -0.50601135609855
N           -1.12199561229116       -0.17355372367244       -0.61105539505295
C           -0.86768314398790       -1.42971772822176       -0.78660819677911
C            0.59474308664851       -1.86831065655583       -0.84576410248984
C            0.83047220866982       -3.00267242790020        0.16245255674470
C            0.93153879490770       -2.34336265109147       -2.26783310761931
N            1.40498357397887       -0.70297896318294       -0.49699513025086
C            2.73709532273693       -0.68787079174470       -0.38853769057232
O            3.48840742668233       -1.63776590820317       -0.61012977231814
C            3.23233564315870        0.64042232916789        0.05080411185644
N            2.50524209728368        1.69126217144077        0.31015640418039
N            3.36435413246526        2.67652824303073        0.70864605428991
C            4.55447068956460        2.16866163185616        0.66972336296787
C            5.83038572574056        2.83293320471582        1.02024087571581
O            4.54736930979289        0.88753293833250        0.26220962663220
N           -1.75603300093274       -2.45325964657252       -0.99116809498612
C           -3.05094313054721       -2.17823990805883       -0.94903589127825
O           -3.94439495760181       -3.01171838525546       -1.23448627178950
C           -3.55390619710375       -0.76236703088680       -0.52636134209521
C           -4.22123620816748       -0.89827168651111        0.86346068359617
O           -4.57168059786968       -0.39940701883136       -1.47964105305379
H           -2.21354622746421        3.98019639544946        0.88573404879795
H           -0.82426885028363        4.32119611741212       -0.17776870643375
H           -2.46621030238916        4.20825681268765       -0.85992635585778
H            0.10576412813727       -3.79446262383269       -0.03025609341812
H            1.83641556859690       -3.40931262898812        0.06989554066035
H            0.68917772365194       -2.63610512329165        1.17920573065858
H            0.23327636910857       -3.13313561551582       -2.54611019797041
H            1.94802157954254       -2.73131715942307       -2.32020977942537
H            0.83109301886329       -1.51806426577996       -2.97309873768671
H            0.86705495569939        0.14493262251868       -0.29896555343293
H            6.51465437384473        2.80464422431061        0.17303617543635
H            5.63967965673489        3.86598568752062        1.29918342275339
H            6.30503756072660        2.31513003380510        1.85338293033071
H           -4.71495678116997        0.03704777642466        1.12885191801438
H           -3.46940248287681       -1.13378683752246        1.61675315785725
H           -4.96389279953957       -1.69647781553384        0.84114611165191
H           -5.01573811191413       -1.22734605414280       -1.72660454101615
