33
 energy: -58.554560487126 gnorm: 0.000410709665 xtb: 6.5.1 (579679a)
C            4.16582923513530        1.47199296592033       -0.31288877203692
O            3.27297515147055        0.38141215373958       -0.51659005335843
C            1.96560375916128        0.62037906709078       -0.26110828999036
O            1.57552622110617        1.72016781035006        0.09007487695828
C            1.11688970330454       -0.65486891309650       -0.30282202432926
C            1.59265418314371       -1.62683387079329       -1.38879179890711
N           -0.27637130275685       -0.29892718740263       -0.56503914217179
C           -1.02058585772202        0.00724352078084        0.43479517886459
C           -2.46494750597528        0.40119585493070        0.14393028835405
C           -3.21733866550093       -0.86671125675451       -0.27995071161067
C           -2.49639834218291        1.43919837610897       -0.98776749826531
N           -3.08843477435554        0.93015849583920        1.35605952343768
N           -0.63582579775005       -0.02907197451349        1.73431240211709
C            0.48223058480147       -0.86375214560608        2.12960210270983
O            0.54429032741944       -1.22853498851203        3.33923761225543
C            1.30475379261623       -1.18806656333652        1.09405829394963
O            2.43854478188985       -2.01679907816712        1.30129665809851
H            4.13698843940360        1.80641504939851        0.72859235402373
H            5.16485327999619        1.11701132744266       -0.56069633769670
H            3.89964806210173        2.31161010452180       -0.96169918626041
H            0.95415766135447       -2.50987388561279       -1.38466537521784
H            1.52933493440607       -1.15323084016255       -2.36807910730097
H            2.62135365637000       -1.93331176542102       -1.20568024075902
H           -4.23753671552647       -0.62196433362687       -0.57314610409446
H           -3.25076017024983       -1.57668888317258        0.54663925127164
H           -2.70856309151933       -1.33095125817288       -1.12513246496009
H           -1.99831808675869        1.03513625523797       -1.86980370405415
H           -3.52540583093220        1.68946800310469       -1.24028711309164
H           -1.97989950798981        2.34804119989458       -0.67889547768969
H           -4.09195826622965        0.88456239945699        1.26295536453786
H           -2.84626991895577        1.90618865897524        1.46777178328410
H           -1.36420649501762        0.07980782933036        2.42662391993004
H            2.43718555574444       -2.25040012777322        2.24033279200094
