42
 energy: -82.986080170522 gnorm: 0.000269267609 xtb: 6.5.1 (579679a)
C            6.78631952229069       -0.08360938603507       -0.18097687897598
O            5.46429047962652        0.41908439569835       -0.42999041627977
C            4.45499687533631       -0.35200997266316       -0.00608130327219
O            4.62602120249653       -1.40485144731105        0.55820356577269
C            3.11038141608773        0.22099296152018       -0.30882620373616
N            2.08526158287623       -0.57765911618528        0.04871105145962
C            0.85252081581604       -0.18343278801386       -0.17518045227218
C           -0.24255882083914       -1.14515897301612        0.23687408383101
C           -0.09525078989509       -1.45227711891168        1.73418840407917
C           -0.10049307025880       -2.42347714864453       -0.60432885124865
N           -1.53635620476571       -0.51383664660156       -0.02281493462796
C           -2.70178184594900       -1.12630800139782        0.19249271918044
O           -2.84575845172337       -2.24632767317829        0.65550006943977
C           -3.94862715951370       -0.30730558262673       -0.22553327955511
C           -4.66758149721675       -1.03114360559897       -1.36456088077248
N           -4.84009202883993       -0.19845908791085        0.92741801026816
N           -5.04233214305708        0.99470247650054        1.19526738936478
C           -4.33921473603746        1.81438439856563        0.29691117803685
C           -4.37370117664846        3.14428726665978        0.29724167057526
O           -3.63886453229391        1.02669223758384       -0.56369675780007
N            0.52112005904951        0.98251641406056       -0.75025243208085
C            1.49732446258059        1.78849813626841       -1.11121062014175
O            1.20200587992313        2.95090509634075       -1.69343325430989
C            2.86329603456123        1.45130998381568       -0.90475548931449
O            3.78582848823983        2.34079919257912       -1.29956557185101
H            6.90153036206883       -1.06653700132245       -0.64281239689379
H            6.95518815711195       -0.16301774719977        0.89507952117958
H            7.47869409946654        0.62799869813129       -0.62317602362732
H            0.90744661238033       -1.83446290494625        1.92075559915951
H           -0.24181311404012       -0.54247232677132        2.31476914087092
H           -0.82595976236691       -2.19770962236421        2.04331208846602
H            0.91222521017400       -2.80876569358800       -0.49509708019010
H           -0.80944536897080       -3.17961223111897       -0.27208867087162
H           -0.28419696663224       -2.19682029833026       -1.65342021324760
H           -1.51663648245492        0.40042958391757       -0.45586562505858
H           -5.59637014072902       -0.51427798032263       -1.59510297846492
H           -4.03032937606789       -1.03710475796849       -2.24558224303939
H           -4.87945404643632       -2.05358742089215       -1.05796674938028
H           -3.82687336864072        3.72444962264754       -0.42633452644464
H            0.24739027151614        3.04896688418917       -1.80313592969932
H           -4.96162271926451        3.67005826632335        1.03083859026843
H            4.69347327103006        2.03414691810922       -1.13143431880772
