42
 energy: -83.624556860306 gnorm: 0.000443463245 xtb: 6.5.1 (579679a)
C           -1.32532809608396        2.42878909473925       -0.66016015926487
O           -1.97001085689517        1.85270231022992        0.43870930755378
C           -3.21963315498095        1.01314263174551        0.05204564158311
C           -4.08275227339028        1.19136254617282        1.35428304795205
O           -3.77893887112458        1.42817827080464       -1.03775591737722
C           -2.69825833646121       -0.47754637585680        0.00916360058349
N           -1.34978843359973       -0.64403452772526       -0.08834209036157
C           -0.82222989761952       -1.82002137505228       -0.19155538009374
C            0.68461369205449       -1.99118318385554       -0.27013486154673
C            1.09661621504676       -2.54554768687106       -1.64236860858750
C            1.19001660203466       -2.90720753541940        0.85471262444673
N            1.23785249341352       -0.65021382992904       -0.09055639762491
C            2.53640529953087       -0.34553657794247       -0.08449585168165
O            3.46333971401834       -1.12825771168942       -0.25371359814231
C            2.75072444200603        1.10972071435044        0.16971960703920
N            1.83249333925070        2.00241905131713        0.37353254495567
N            2.47317566731964        3.18922755833013        0.58076411344656
C            3.74168709795508        2.94308669679399        0.49131898402219
C            4.85875515330019        3.90101767670365        0.64395535115422
O            3.98510593856347        1.64874026357636        0.23334035488277
N           -1.60698961801363       -2.94870154164575       -0.23369103297307
C           -2.98153599041226       -2.91845186903203       -0.14137706857433
O           -3.59883303422559       -3.99808416569302       -0.18569795774445
C           -3.59523900134750       -1.56575478075519        0.00509614361985
O           -4.85630127442013       -1.48638432210378        0.12668226002443
H           -0.56684129374910        3.12854859687651       -0.28917851523495
H           -0.81130309254361        1.67802172401121       -1.28822928022623
H           -2.01867940728762        2.99195852951537       -1.30951266178371
H           -5.00965364504168        0.62956136537455        1.25119314255465
H           -4.32016641454864        2.24926166775959        1.46778720894305
H           -3.53911521459907        0.84747341317563        2.23427916856985
H            2.17610808830480       -2.67613050423672       -1.69058718515094
H            0.62105608608083       -3.51121984245446       -1.80269614402831
H            0.78490383656750       -1.86158838033173       -2.43101789599039
H            0.75924243606398       -3.90015647619127        0.74391966748343
H            2.27400713964108       -2.99436919401871        0.81214252513701
H            0.90301854030756       -2.50239112535664        1.82468422180738
H            0.53799993746291        0.08346413005405        0.05711126387482
H            4.46483026910186        4.88920661240907        0.86700536670479
H            5.44570545989209        3.94205691850007       -0.27289416500586
H            5.51745928262200        3.58082211025658        1.45042275220327
H           -1.18352282421481       -3.85598387652156       -0.31751112715948
