42
 energy: -82.968486479473 gnorm: 0.000228539109 xtb: 6.5.1 (579679a)
C           -5.12868012592024        2.17207955006840        0.43115441989609
O           -5.06434794163739        0.81625227991483       -0.02787388494415
C           -4.00119252851731        0.07844287824612       -0.10726939738654
O           -4.13338373338276       -1.01484246555044       -0.79286409117604
C           -5.38228172423305       -1.31583687535882       -1.43004917764840
C           -2.69396094225800        0.32719796750355        0.44357696666985
N           -1.69003123430160       -0.35476354869805       -0.20467283255654
C           -0.45772495600021       -0.19346103657796        0.22146564141908
C            0.60547864074031       -0.96355310797218       -0.54910804891887
C            0.40567875101906       -0.75460823855856       -2.05515466418857
C            0.49314198457301       -2.45176273434925       -0.18362269489434
N            1.90550787682207       -0.44542533251593       -0.13590931407980
C            3.08203302837734       -0.86871961252624       -0.61650511373101
O            3.24139467316959       -1.74250906127955       -1.45604324307995
C            4.21218811719301       -0.12224048581014        0.00504433871720
N            4.11827318197042        0.79434090227648        0.92016109674179
N            5.38796489543645        1.21623146412211        1.18653935389424
C            6.17412442341228        0.53029465098655        0.41520509572455
C            7.64795474194410        0.62043424281121        0.31819102710366
O            5.49293654726049       -0.33286660941334       -0.35357154681678
N           -0.04680230601007        0.54100976519303        1.25638901785677
C           -0.96630441687300        1.19931109826958        1.98622322333517
O           -0.73896635547026        1.89055317451794        2.98876620337168
C           -2.37417957338007        1.08321077351398        1.55219383481318
O           -3.23971392314571        1.69468749288937        2.35981870362394
H           -4.18747501115243        2.68885699447166        0.24591691586903
H           -5.93632395535017        2.63517657096820       -0.13475744984549
H           -5.36641897560673        2.18205702136132        1.49474623192625
H           -5.63912552512577       -0.52029313425542       -2.13073439319427
H           -5.23364100649062       -2.25790903292638       -1.95295123086321
H           -6.16690336615356       -1.41113881518160       -0.67849439984145
H           -0.61035432575465       -1.04324822248653       -2.31987358121110
H            1.11010351226862       -1.36018810976924       -2.62280886337694
H            0.55021834319312        0.29518630577671       -2.30717921035922
H            1.22004836637500       -3.03565625370998       -0.74620506980913
H            0.67252811031823       -2.58803056417194        0.88220777796064
H           -0.50980938730207       -2.80221204490054       -0.42222196522375
H            1.88376751335434        0.27306730712919        0.58348172302478
H            7.93655459707511        0.92855802306025       -0.68669653748195
H            8.01780178526438        1.34443715903693        1.03992520349875
H            8.09571894121738       -0.35341711321929        0.51375867370369
H           -2.68579471691296        2.10784177711104        3.06980326146931
