46
 energy: -86.307430471844 gnorm: 0.000400512758 xtb: 6.5.1 (579679a)
C           -6.38285281662902       -0.76681995499062       -1.57943057235698
O           -5.25671463804191       -0.11480521963182       -0.95930949141630
C           -4.10596454891012       -0.78361663935595       -0.97734214550266
O           -3.95738020754322       -1.86684589724433       -1.47692822030274
C           -3.00376531831014       -0.03063963501042       -0.29611104854318
C           -3.11725591183139        1.18016664346189        0.31784759551018
O           -4.21302281640629        1.91171129227104        0.45132956029523
C           -1.95579015800213        1.75492365182210        1.01188124955339
O           -1.95278872719497        2.64954446295788        1.79225242199221
N           -0.62078251094495        1.16501679250892        0.58921159615929
C            0.36775923655829        1.46196798752494        1.65947381206142
C           -0.29181908898110        1.97847532110104       -0.63661863854713
C           -0.71657240063956       -0.27954630179917        0.18315413355876
C            0.44266642096867       -1.25211584898066        0.29646014582252
C            0.18766457053362       -2.42847135125973       -0.66202873864938
C            0.50714540705041       -1.79274456937113        1.73383872146191
N            1.73011688801844       -0.64117156578601       -0.01382891985714
C            2.02222723116159       -0.19079725871891       -1.26303178009716
O            1.19105427796512       -0.02782324377185       -2.14077703139079
C            3.44927398609908        0.14499435768815       -1.42853646515455
N            4.05907816416057        0.55180652465031       -2.49829644687686
N            5.36420411504574        0.72891678937826       -2.16278040056696
C            5.47515131356615        0.42208150861402       -0.90633339038477
C            6.69039953834763        0.45765289680794       -0.06559091189765
O            4.29832285980196        0.04117447951513       -0.38296705037981
N           -1.81561966019260       -0.73230324605928       -0.23692883788077
H           -7.23040131312802       -0.09804659482775       -1.45422800301130
H           -6.17224092338062       -0.93127354400514       -2.63779108693096
H           -6.56813375530148       -1.72242118959886       -1.08553814741987
H           -4.99394944809282        1.50219339526215        0.02955590597704
H            0.41371144333422        2.54170426448493        1.77889909152630
H            1.33461881309999        1.07835747300520        1.35582394777679
H            0.02845736351175        0.99883301797632        2.58104504132740
H           -0.84249223014901        1.57671449241645       -1.48307583324330
H            0.77556684537355        1.90106598306682       -0.80884000594947
H           -0.56311465385928        3.01361116751052       -0.44405601757119
H           -0.70142414672359       -2.97034641968221       -0.34518791147680
H            0.03941775452573       -2.07013834299479       -1.67890622508476
H            1.04546535552070       -3.09733194598491       -0.63465493217477
H            1.21067842585440       -2.62314768462621        1.76652693408056
H           -0.47538574610715       -2.14952275043123        2.03794284872632
H            0.84089412705302       -1.03057051877327        2.43199146640978
H            2.49604510852447       -0.85407256274281        0.60532725532398
H            6.53629401711979        1.13373700146396        0.77541425286961
H            6.89297976081347       -0.53534759783382        0.33596283619122
H            7.53827999636926        0.79527237998609       -0.65757756397300
