43
 energy: -83.886331111160 gnorm: 0.000861261124 xtb: 6.5.1 (579679a)
C           -3.13687907492832        1.09262000287050       -3.48516821319072
O           -2.57442865765423        0.72447881615473       -2.22985681391152
C           -2.85142790688700       -0.51630308101871       -1.79695834048169
O           -3.54314356078806       -1.27356777661607       -2.46214002609945
C           -2.24037538869651       -0.84107435121806       -0.48769328636876
C           -2.29897137890583       -2.14956070818452        0.00581112059366
O           -3.01541206717687       -3.17208668155928       -0.61126118681321
C           -1.50325460104334       -2.50891001966145        1.13492391573777
O           -1.36804326235209       -3.64002256411915        1.62630978000370
N           -0.72400986131703       -1.45589685223618        1.64092824751709
C           -1.17804165937004       -0.07818954178217        1.47879219894902
C           -2.33095713161799        0.21441231272349        2.46499462141879
C            0.04955945727261        0.86501997117457        1.70163421491889
C            0.66343290127797        0.76095049838330        3.10123425144970
C           -0.32485246506017        2.32076191126925        1.39814468535252
N            1.02617840555627        0.40258021576861        0.70809529979412
C            2.24463021706703        0.90842690152003        0.50557920743937
O            2.75383529972934        1.84359931871640        1.10940832028433
C            2.94972549611900        0.17067315887964       -0.58495181186673
N            2.46824947252055       -0.81687497553887       -1.27612065908950
N            3.44222958119387       -1.19613154062210       -2.15421023985562
C            4.45458715713933       -0.41507879626750       -1.94072201528992
C            5.76469813152122       -0.42631001261897       -2.62848712402273
O            4.20723719541799        0.47059165661981       -0.96303153843735
N           -1.63311354893701        0.16977370853385        0.12813497161213
H           -2.84307949621394        2.12331235936299       -3.67557977482630
H           -4.22677607655484        1.01419598369281       -3.45268038484911
H           -2.75786754721284        0.44317766428042       -4.27927709296342
H           -3.47073754880115       -2.81153765602504       -1.39361272907679
H           -0.35989525514610       -1.66085785651598        2.56095883999599
H           -2.01187247230837        0.07070048972478        3.49493707121952
H           -3.15446004725211       -0.46863857188098        2.25816570844688
H           -2.68643047397516        1.23422547348967        2.33518873130070
H            0.99777644264759       -0.25423339516033        3.30843393000653
H           -0.06604086007723        1.05364613881840        3.85349955335081
H            1.52088510811994        1.42847001378661        3.17979863114927
H           -0.98683608240639        2.70495415870901        2.17206691577578
H           -0.83239716528262        2.37754344236236        0.43461369956918
H            0.56890996456252        2.94230602535957        1.37118084347224
H            0.72078330882532       -0.37113267795305        0.12567015393938
H            5.74621962664713       -1.15134885431987       -3.43798358299578
H            6.55281120253197       -0.69126332932978       -1.92389891515818
H            5.98755462182109        0.56260102044114       -3.02661117799445
