42
 energy: -82.946537583039 gnorm: 0.000650563359 xtb: 6.5.1 (579679a)
C            6.89871077627542       -0.64009805002101        1.58132620627846
O            5.65181057009788        0.05530508103184        1.56742967068637
C            4.72237188484920       -0.41238263790847        0.73255734088276
O            4.90583055765288       -1.37913151986321        0.02031322009337
C            3.45323232254011        0.36032198730984        0.74576458904777
N            2.55915553946530       -0.06811235818838       -0.16917618051686
C            1.41091069032861        0.52822103803989       -0.30947178191478
C            0.45179272773138        0.06513722465232       -1.37936693797158
C            0.54947727135390        1.00793401716791       -2.58318260330539
C            0.75972587302159       -1.37989627209731       -1.78418160335925
N           -0.91146972542040        0.14951421617086       -0.85244400136759
C           -1.23837626613717       -0.42897887684498        0.32468581573993
O           -0.44157640403024       -0.94351848395513        1.09154748437964
C           -2.69063239445360       -0.37331119490753        0.60728444587691
N           -3.29038658223112       -0.89552037696030        1.68871641472629
N           -4.55555267241650       -0.71892981291371        1.57952572463104
C           -4.83688536824339       -0.04432002444471        0.34025355308394
C           -5.67733797827190       -0.93727192893632       -0.57635541351138
C           -5.49930753087783        1.31002530255939        0.60217534458881
O           -3.54433879273702        0.15445922556702       -0.24148953649374
N            1.06586521111854        1.61525687938676        0.42696283957476
C            1.85022107669500        2.14877033820558        1.43388149629451
O            1.46062135891956        3.10778397909469        2.07106386459996
C            3.18317723113583        1.45563606289832        1.64280023363599
O            3.93382700555727        1.85360109804600        2.53094275624205
H            6.75752808988580       -1.66140776322491        1.94306490466480
H            7.55706003344860       -0.09081891070314        2.25139221959836
H            7.32381336862187       -0.67180133555806        0.57528756598587
H           -0.14955180654867        0.69232020957652       -3.35464996108271
H            0.31151362222902        2.02653649053119       -2.28363388605942
H            1.56001828092824        0.98305994130793       -2.98800489017593
H            1.77140250515653       -1.43334842350328       -2.18360929899114
H            0.68579654418588       -2.03554438314416       -0.91744801628476
H            0.05226181383619       -1.70499365311893       -2.54317790704507
H           -1.63961733722896        0.49074046690939       -1.45498989883201
H           -5.15418674895049       -1.87628541101557       -0.74350931219925
H           -6.63805027123280       -1.13048510667699       -0.10565969243939
H           -5.82730670430124       -0.43152077840723       -1.52677937868358
H           -5.61589574563495        1.83705904673704       -0.34128115900428
H           -4.87412434841388        1.89649044607840        1.27214817798264
H           -6.47365481905254        1.14887031525409        1.05664046563910
H            0.18212314115093        2.06636993585757        0.25264712501876
