42
 energy: -83.672095478911 gnorm: 0.000184454547 xtb: 6.5.1 (579679a)
C            6.06591122158219        1.43879569323712       -2.42181454330670
O            4.91014131860273        1.75682887138735       -1.66607498451797
C            4.11653156189062        0.69951651617590       -1.32490436742067
O            4.41833448220642       -0.43462560234664       -1.69052641868136
C            2.95631015035981        1.04061569083925       -0.52577935960991
N            2.20450974053807       -0.06842344863548       -0.16684764997501
C            1.15660601081899        0.05456608938782        0.56677325754669
C            0.36500766838739       -1.17778147714379        0.98651477207160
C            1.01523724289301       -2.41142109438622        0.33697040216179
C            0.43912435867741       -1.33591010044812        2.51872904332068
N           -1.01120417530004       -1.14309921502902        0.48629699086632
C           -1.89742852851699       -0.36601061040607        1.03238282834947
O           -1.80086674124242        0.48491881207342        1.95595730214245
C           -3.32842368753375       -0.57216146416902        0.41408853037786
C           -4.38987617569518       -0.57106332203943        1.51457245352730
N           -3.41268016923658       -1.81400887693976       -0.37617675128565
N           -3.69407047943704       -1.42134877566447       -1.71776881328560
C           -3.82617018099002       -0.15660685320944       -1.71547733319029
C           -4.18446413879504        0.67278461154336       -2.89804375801780
O           -3.63450431363086        0.46872997457865       -0.53436770371632
N            0.73880830715249        1.28759509397085        1.01513226775997
C            1.36802364141780        2.46036457972838        0.72836062397053
O            0.92566455443781        3.52887049048694        1.16248868161132
C            2.61174684662680        2.35646430990713       -0.12514616728994
O            3.23176957977795        3.40424114502101       -0.41071618922346
H            6.58982764207875        2.37380920724225       -2.61814852603796
H            5.79652199671509        0.96259440991497       -3.37059353991013
H            6.72228079131543        0.76106491440280       -1.86559199706139
H            2.05768879826143       -2.50693918324225        0.64132141424570
H            0.47252067563607       -3.30671365530721        0.63665349813997
H            0.97273134245795       -2.32402010583986       -0.74912113006193
H            1.47261418751716       -1.51072987942078        2.82003350520428
H           -0.16394234754671       -2.18879166098349        2.82905954372249
H            0.07416538136538       -0.44728589908281        3.03081649572481
H           -2.47883137166626       -2.25418784600007       -0.39702817263156
H           -5.38526799937487       -0.60960609622163        1.07578876152591
H           -4.29177577442472        0.33169007972325        2.11624648142578
H           -4.24593963222670       -1.44300842071468        2.14974305026662
H           -3.40677994411122        1.41127494326040       -3.09326632595238
H           -5.11549426129399        1.20602060427980       -2.70808305158728
H           -4.30771669137034        0.03518937070094       -3.76983085848611
H           -0.10663988831101        1.32780817939115        1.58563373727851
