33
 energy: -58.545209824708 gnorm: 0.000891508925 xtb: 6.5.1 (579679a)
C            3.53994668770316        2.81126945508206       -0.96007859865284
O            2.38674261104511        2.04010632835084       -0.64418348261618
C            2.61769445548017        0.81397259549045       -0.12535662999832
O            3.77001817048270        0.41760444736522        0.05816745619714
C            1.42336358321202        0.04456161135061        0.16917094643850
C            1.50693275143953       -1.21958416390037        0.68107970871985
O            2.67647591911200       -1.82186828058689        0.95013469054998
C            0.24108665596608       -2.01367739579981        1.12468054983096
C            0.39096630651154       -3.48685969597946        0.62345078138217
O           -0.04776614596876       -1.87468977104626        2.37694129731840
N           -0.85887708904912       -1.41595688752587        0.19530823966384
C           -0.87073415200525       -0.08388317843994       -0.04504976536550
C           -2.22111013097019        0.57331922818144       -0.32267958388762
C           -2.88988283841738        0.89592890743015        1.02052310427881
C           -2.01857926677243        1.85621282116637       -1.13820482951480
N           -3.11042189411112       -0.31054937763572       -1.07863414557152
N            0.18438688399242        0.65926542996220       -0.09808322095882
H            4.11491670367152        3.03226806985231       -0.05592688734048
H            3.18923841249737        3.73797900788021       -1.41202320184548
H            4.18111742789329        2.27313671053103       -1.66449351338311
H            3.42712209212651       -1.22808232984851        0.71378124458567
H            0.55262955356382       -3.51944649436299       -0.45254088387803
H           -0.51589991278769       -4.03412617813022        0.87252802399795
H            1.23457297569770       -3.94817826206397        1.13491017458307
H           -1.76115367919881       -1.83152604048432        0.37569190728612
H           -2.27766305331559        1.59898687224092        1.58600977526971
H           -3.87216935092938        1.33709631518959        0.85310575784954
H           -3.01063120333910       -0.01490614085838        1.60744467914745
H           -2.98282364581529        2.31961102327994       -1.34565338014216
H           -1.39112450127765        2.55805170700092       -0.58839906453060
H           -1.52965279100389        1.62279286233406       -2.08423378953193
H           -2.60534672408618       -0.74414134726282       -1.84046878311997
H           -3.47337481134706       -1.04469084876280       -0.48691957676194
