42
 energy: -83.673663147883 gnorm: 0.000213575057 xtb: 6.5.1 (579679a)
C            6.42393499506988       -0.48664276213526       -0.21342136845615
O            5.04143671840975       -0.30016945704140        0.03650959882607
C            4.66539341856733       -0.35557236617972        1.35818697524567
O            5.51274222628182       -0.54002308421354        2.22274487871913
C            3.23840842129451       -0.18694456189753        1.53853627767770
N            2.51458412732451        0.01745892644807        0.37228833437333
C            1.23782404940079        0.13719080265146        0.42024186736638
C            0.40611329781402        0.41350011023232       -0.82372410249619
C            0.41420273364570        1.94282998568315       -1.03716911500018
C            1.06381316653793       -0.29045870865856       -2.02261586256715
N           -0.93929280297024       -0.08943369529916       -0.55758311261874
C           -1.84322320206727        0.05436365652091       -1.48750249741726
O           -1.77345032149012        0.58627961548510       -2.62099170665845
C           -3.21744088425650       -0.59699770937271       -1.08524185469761
C           -3.90013556731784       -1.20922077823296       -2.30936480856219
N           -3.05012902539202       -1.61347819487132       -0.03092815296981
N           -3.82779188396669       -1.17155528090428        1.08233302856426
C           -4.38588660763959       -0.08324476565299        0.73816182117611
C           -5.32673283187788        0.70483455534299        1.57951175762734
O           -4.10190132748334        0.37815756701106       -0.49881481780901
N            0.54999656979023        0.07889568052939        1.60999606745197
C            1.12708929286432       -0.10273954661449        2.83001484749307
O            0.43054684160239       -0.15150420342586        3.84822850604007
C            2.63271146128549       -0.24358611651214        2.82168285218959
O            3.22690765888612       -0.40588149132864        3.90828371812623
H            7.02053700177640        0.28698861744767        0.28168841843776
H            6.56727388903907       -0.42310488140701       -1.29157475145296
H            6.75752029716769       -1.46724626018657        0.14323862256422
H           -0.11432099107800        2.20156526450717       -1.95358939143623
H           -0.07133720336533        2.43824638190617       -0.19605817692820
H            1.44217323135437        2.29984635225963       -1.10994835877983
H            2.11160903046088        0.00537000151389       -2.09139060149692
H            1.01359973734232       -1.37210313489976       -1.89257806697340
H            0.55843519612894       -0.02079727946067       -2.94870272517904
H           -2.06900271017200       -1.58810980583315        0.29034846443106
H           -3.99693834667368       -0.45383756459809       -3.08800305159094
H           -4.88698531627425       -1.58224953879367       -2.04139419826859
H           -3.29516286784769       -2.03326534864964       -2.68332611663347
H           -6.30517076509761        0.74664234038569        1.10178965363630
H           -4.96511100296098        1.72626304256963        1.69332814831648
H           -5.42453280895072        0.24048520971151        2.55784816448845
H           -0.46230589515061        0.13272042595170        1.54895983526339
