33
 energy: -57.838727921598 gnorm: 0.000661134780 xtb: 6.5.1 (579679a)
C            3.28983849116547       -2.12090920185366        2.08351083374370
O            2.15056768206755       -1.41201266138049        1.56693313877327
C            2.39284606928961       -0.35050229914580        0.83174862175992
O            3.49108511501890        0.07354057649626        0.56358245068588
C            1.12988121883447        0.30693864346877        0.32127497965161
N            0.07616067970811       -0.40502230896265        0.24975089611469
C           -1.11688414519290        0.16439522636406       -0.23422690065870
C           -2.33451679538524       -0.68327070368485       -0.18589109954578
C           -2.23830771714278       -2.04589574754197        0.45868156583872
C           -3.71252048503650       -0.07021687164521       -0.20918655652760
N           -1.58805700550970       -0.57345629870908       -1.46420157365980
N           -1.19261065329337        1.56245059326258       -0.31967792976099
C           -0.12203806541049        2.41530520251938       -0.16589495598345
O           -0.28398360413641        3.60291416403100       -0.06307121038787
C            1.24194486418953        1.72192503370126       -0.21072045696391
C            1.65323809179273        1.61251662475208       -1.69888694158526
O            2.14789633255741        2.50081618435416        0.50786222549490
H            3.86927073359483       -1.46228665640814        2.73323288008153
H            2.89535148779403       -2.96545228277608        2.64299373141524
H            3.91489433656784       -2.46229146722289        1.25653749537387
H           -2.87579750109853       -2.75080802534034       -0.07234057238177
H           -1.21120007802223       -2.40617959495264        0.44419573626986
H           -2.57713425500522       -1.97513222464553        1.49175366512303
H           -3.74408403708863        0.82278575715626       -0.82858285270816
H           -4.42498376521097       -0.79333890556415       -0.60418572942164
H           -4.00697555500418        0.18923011390041        0.80728231874251
H           -1.99089840388577       -0.01569686509194       -2.20157391013824
H           -1.03024333459361       -1.36126111800083       -1.75999951212788
H           -2.10276153430040        1.99274728372638       -0.27251423498489
H            2.62406280672243        1.12528405614573       -1.76645805711072
H            1.72111761668993        2.61574510321880       -2.11645762448817
H            0.91733506827482        1.03396026642771       -2.25009035259039
H            3.03751034104758        2.11317640340096        0.46461993195353
