42
 energy: -83.645409724062 gnorm: 0.000759618293 xtb: 6.5.1 (579679a)
C           -5.67441613454309        2.49841964660111       -1.08349874726906
O           -4.54731260694095        1.94881397851562       -0.42986071055147
C           -3.71540498786082        1.18396245632501       -1.22468889409814
O           -4.00344535704697        1.02657657767516       -2.41633141430569
C           -2.59043483063991        0.62473936393810       -0.54618283379439
C           -2.24969038281790        0.84371606592434        0.80351846577554
O           -2.88105437584853        1.51153762240412        1.64729747001177
C           -0.93081474802261        0.13543149874098        1.25806165200791
C           -0.95493951461948       -0.11347527897199        2.76918658002621
O            0.21164128045150        0.90723024788580        0.91467529037465
N           -0.87942166830519       -1.13819670940841        0.55781738385497
C           -0.88244961060249       -0.90827694512389       -0.83695713902140
C            0.30259019235313       -1.49387586140504       -1.58516148945064
C            0.32738313830901       -3.02707456433677       -1.46924883475344
C            0.23364137141518       -1.07643255239139       -3.06169147962941
N            1.43932106234482       -0.87285975929800       -0.88367615114469
C            2.64719459593833       -1.14386927414894       -1.30963666676516
O            3.03479112140550       -1.87987081685581       -2.24767256294909
C            3.70838646921482       -0.41548772676395       -0.51535502425680
N            4.98445255247852       -0.38323721147887       -0.76843664512226
N            5.56495466101977        0.40794145775933        0.19490528290038
C            4.60566743531027        0.80191365881733        0.96795207976759
C            4.71879452538615        1.67578957779072        2.16069513903483
O            3.41268356745377        0.32387947854392        0.57970961896149
N           -1.70334396582857       -0.10539452880758       -1.38389391704250
H           -6.32632836057942        1.71095467778275       -1.47945986020533
H           -6.22354131139087        3.08414348531202       -0.34571034580943
H           -5.37417919376191        3.14929159631474       -1.91318861178634
H           -1.79771913076599       -0.75248189663988        3.02755193424787
H           -1.05351509843150        0.83745856056517        3.29128800938241
H           -0.02987977275710       -0.59544647120717        3.07818436199608
H           -0.04760436696506       -1.65081777734310        0.83544443528975
H           -0.60134000690066       -3.44268775915033       -1.86203390534911
H            1.16240228176521       -3.43744834388349       -2.03619138881010
H            0.43335152482274       -3.33133858525993       -0.42853887840169
H            1.06658333976584       -1.49871734207799       -3.62201620387176
H           -0.70075063726452       -1.43385003046996       -3.49746457033037
H            0.26110250946386        0.01102069500034       -3.14562400535252
H            0.81459165763537        0.33386448516195        0.35185962982912
H            4.37996632311081        1.14633306206930        3.05082068741379
H            5.75615580964675        1.97162673695976        2.29363344570770
H            4.10193064260864        2.56619550492591        2.03904881348504
