47
 energy: -79.546360226050 gnorm: 0.000634370503 xtb: 6.5.1 (579679a)
C           -3.58309704635006        0.23682054750845       -3.55307339187440
N           -2.41566484184998        0.44803642253974       -2.69669398003769
C           -1.18035615955360        0.55333317327225       -3.30672137906756
O           -1.02077042766675        0.47634154698959       -4.51948956847875
C           -0.06816092820109        0.76989751742848       -2.39530410653335
O            1.13675106909156        0.87805419875136       -2.98607513535833
C           -0.26760177335695        0.84255896610371       -1.04734821623901
C            0.77078035280462        1.05760375405633        0.00250950771073
O            0.49537131861943        0.91787497477469        1.20241751343184
N            1.98638239355758        1.42288593382460       -0.41001067064997
C            3.06735448685469        1.66109359666487        0.54556704119007
C            3.84705742219318        0.38731716411906        0.78884609626326
C            3.38082794214270       -0.54717335132051        1.71130153233923
C            4.07796556116699       -1.72559315654725        1.93468559551546
C            5.24089603637251       -1.94585290683742        1.21822691635947
F            5.92168901153896       -3.08281034711351        1.43048804233182
C            5.72919019326058       -1.04235656454788        0.29187448780647
C            5.01820103374620        0.13121257384579        0.08031787317662
N           -1.53693108624725        0.69884873193433       -0.54425461246565
C           -2.54550347846095        0.52508523356358       -1.33875651848091
C           -3.90824616902313        0.41162822995754       -0.73850029516652
C           -2.25451001418782       -0.51607199300925        2.59972262605714
C           -1.52049132483196       -1.54301218748856        1.82510392336480
C           -3.37611214119624       -0.91356605666955        3.47811903343129
N           -1.91836174988716        0.71608033488908        2.47857827563698
H           -4.06131499224476       -0.70585322443057       -3.29125737242363
H           -4.28718806113090        1.05680486544777       -3.41978825812682
H           -3.24251519767324        0.20464844354809       -4.58753368534607
H            1.02121554848981        0.78177216559589       -3.95182342900527
H            2.20169785918912        1.50495214113457       -1.39102933344526
H            3.71286950576648        2.43866575380279        0.13143318523823
H            2.61853600253318        2.01813242172582        1.47662858635567
H            2.46518541866299       -0.35258034598923        2.25667729407895
H            3.72837165894153       -2.45906758798248        2.64928159107850
H            6.64212584103598       -1.25252298923954       -0.25047179961142
H            5.38201943769452        0.85332516219588       -0.64103528942919
H           -4.36805930205682       -0.54342632164879       -0.99108800725378
H           -3.82059868560640        0.48989485014511        0.34235480763366
H           -4.55741637590776        1.20852709248843       -1.10199083126766
H           -1.99397342475981       -1.62119695769312        0.84372238126602
H           -0.48583274116401       -1.24122308228978        1.66468777608794
H           -1.57057454621553       -2.51647203621271        2.30829161495515
H           -4.03706297872547       -1.59745440151825        2.94629613215054
H           -2.97495684489281       -1.45599781657526        4.33661429467475
H           -3.93876647725883       -0.05254663677328        3.83185948815744
H           -1.11971229818153        0.96792268379508        1.86866098234502
H           -2.39070602703189        1.45546248381220        2.97054128162740
