42
 energy: -83.020263387132 gnorm: 0.000386818912 xtb: 6.5.1 (579679a)
C           -6.03046000308723        0.44214871733849        1.41658515546071
O           -4.80304793759311       -0.16547643801761        1.00312465542748
C           -3.81731591603410        0.66419092661774        0.66949207832635
O           -3.93030993918000        1.86930669184585        0.70943655124110
C           -2.55940673168682       -0.01456801887631        0.23042415974651
N           -1.59865697477465        0.88579126104776       -0.15186873928152
C           -0.45681491923113        0.46441954627468       -0.56969393070223
C            0.58932162140985        1.44724432338690       -1.04680962775273
C            0.56171225329689        1.45075872408651       -2.58367060843253
C            0.30166900611732        2.84118371826035       -0.48070816415158
N            1.89302255872720        0.97336556347951       -0.56893497113217
C            3.05667703360459        1.58792419212153       -0.87732123306535
O            3.17755370101765        2.54025011512405       -1.62835408854389
C            4.22261748999408        0.96272970082260       -0.20427392672257
N            5.46376388814076        1.33334902801249       -0.25967011244759
N            6.16982720635487        0.46269884298502        0.51468467745011
C            5.31660897452124       -0.38715185743785        0.99518427876358
C            5.58211048494340       -1.53304996248833        1.89151506178547
O            4.06580802671450       -0.12611748617340        0.58039961879814
N           -0.17834519674307       -0.86671951376203       -0.66603429340164
C           -1.05110232103142       -1.87321149455626       -0.30665149024388
O           -0.71382417087868       -3.04152854329273       -0.42899836427304
C           -2.33807446810170       -1.37425531170504        0.18967296531298
O           -3.30301437698268       -2.21162264564741        0.59132691970071
C           -3.13762174114958       -3.62938536172317        0.63391471929994
H           -5.86288442462108        1.06774031783609        2.29671963781017
H           -6.43637549953514        1.05656909918189        0.60909954043450
H           -6.71472700311304       -0.36944765383390        1.65445678360798
H            1.25142601347483        2.19716030133415       -2.97258875664574
H           -0.44572283370628        1.68464251715839       -2.92503294296501
H            0.84651211878278        0.47057173960569       -2.96095608139041
H            1.02890639640932        3.55521103366392       -0.86257104586392
H            0.35676170101794        2.81735577123398        0.60649394914098
H           -0.69866617740473        3.15255766945414       -0.77792859518535
H            1.90711582737107        0.26791013178683        0.14802102073081
H            5.26013689692409       -2.45866669239344        1.41479474905235
H            5.01839494989045       -1.41901090197621        2.81724556064964
H            6.64511431020583       -1.58641763510433        2.11425464023334
H            0.71639071483206       -1.17411203278528       -1.01602014334836
H           -2.98190883346662       -4.03770949160121       -0.36706746170312
H           -2.30393832130278       -3.90914788077224        1.28119872740673
H           -4.06923538412751       -4.01748301050762        1.04750112687737
