42
 energy: -83.624097411465 gnorm: 0.000579794361 xtb: 6.5.1 (579679a)
C           -1.44136023560185        3.67013566836608        1.33734694676213
O           -1.41773774088346        2.35760900587053        0.81138484947759
C           -2.65715415730558        1.80266521050341        0.54523367268391
O           -3.66753981839104        2.45986373172496        0.78678115430302
C           -2.56547971201026        0.45336145827867        0.01198794430533
C           -3.75927522028296       -0.28752304249446       -0.24534116899034
O           -4.94061236182687        0.17450054629426       -0.19951362136839
C           -3.55964253980526       -1.73729149676142       -0.53393658616766
O           -4.47761578066376       -2.56331988225059       -0.65479979169300
N           -2.25770402086633       -2.18630855178144       -0.55507734900421
C           -1.13652039052904       -1.28726025498865       -0.79604144898797
C           -0.98113668901569       -1.08587794141235       -2.32966369199547
C            0.16085388160053       -1.92417565242055       -0.18411654389239
C           -0.09682492627011       -2.23374040215465        1.29911797996100
C            0.61045078906332       -3.19077795744489       -0.92111507941993
N            1.18173122112033       -0.88537773287891       -0.30099422888604
C            2.47326831158563       -1.03080778568450        0.10735426817626
O            2.96905652056984       -2.10383840827799        0.49829505663900
C            3.26478261585114        0.18325663622474       -0.00082273630139
N            4.53386287059632        0.34415956057145        0.33735470039936
N            4.85293877257085        1.64185636156347        0.04968535897775
C            3.79089449260377        2.19877729362121       -0.43686914950255
C            3.65286254232098        3.59772609612918       -0.90881242786682
O            2.74136942962841        1.35033547701582       -0.50005585693082
N           -1.29816767526032       -0.01691267902250       -0.15894523405941
H           -0.40856556679635        3.96216617620411        1.52822649193015
H           -1.89151984519349        4.37280306404982        0.62634038833962
H           -2.00963330668482        3.71333369838108        2.27403290375324
H           -2.15016636405988       -3.12264659126620       -0.91286062103752
H           -1.82270285779053       -0.50134353171394       -2.70027526525454
H           -0.05918179023663       -0.54651594460602       -2.53841730455594
H           -0.96541823868050       -2.04238688123340       -2.84828522276060
H            0.81051033253468       -2.60147329408501        1.77641652524183
H           -0.87346119417157       -2.99309025999724        1.38759057666119
H           -0.42839639570124       -1.32710481740595        1.80790894225576
H           -0.21968104402784       -3.88942871329989       -1.01367998419342
H            0.97790972725189       -2.94839755950461       -1.91715192579800
H            1.41116035985957       -3.68639052994339       -0.37299252247651
H            0.80233845251164        0.05810400706950       -0.36104033967309
H            3.24021422153583        3.61654534754030       -1.91748177825509
H            2.98183614868485        4.15838783198727       -0.25664369051706
H            4.62946018218179        4.07640473923909       -0.90769519028594
