46
 energy: -86.318267533997 gnorm: 0.000981851759 xtb: 6.5.1 (579679a)
C           -5.15954844318007        0.25603906344958       -0.18537724451020
O           -3.78627174056695        0.76067923558459       -0.25224218174489
C           -3.61563436794453        2.22970417349174       -0.33745788788768
C           -2.20650623475247        2.63966710713341       -0.25406464958961
O           -4.60279232927295        2.85268394454602       -0.48023401569863
C           -2.73419923404001       -0.08403154742263        0.22952732661934
N           -1.72284103601267       -0.23879027340716       -0.63648038401946
C           -0.65630986556998       -0.89389846641370       -0.26503611913059
C            0.47100895579311       -0.95727823294893       -1.28505484582825
C            0.11610926528741       -0.10167326990442       -2.50923269748708
C            0.74520465594864       -2.39353780429515       -1.74028624656851
N            1.67773672212470       -0.39959556857970       -0.67233183484647
C            1.62888643893291        0.77633007186474       -0.00328855118511
O            0.59343590140671        1.36606957224001        0.27146736512035
C            2.96204545150001        1.25949423594818        0.40880123124620
N            3.25891729528812        2.33703524281022        1.06674260058267
N            4.61162739858346        2.34878666181319        1.21100714618917
C            5.06059155888076        1.27717842449201        0.63249325734144
C            6.46299066612412        0.82476054485931        0.51421177706681
O            4.06682863227475        0.54460440889795        0.10425838833839
N           -0.57649597893252       -1.47786181732228        0.96357745003367
C            0.58500134239911       -2.22870742868009        1.45187889413246
C           -1.62422510237224       -1.42743656113891        1.88143677674999
O           -1.57353822671754       -1.98223541539627        2.96612695374914
C           -2.76732060649857       -0.62999531855622        1.46913508192599
O           -3.78306541813342       -0.47887050304161        2.32918467645997
H           -5.53944940396544        0.39396240514004        0.82608432320149
H           -5.73678518235737        0.82493872840013       -0.91138617740420
H           -5.11475164873840       -0.79534301027400       -0.45431886702794
H           -1.76397269438034        2.30772610409205        0.68539535972911
H           -2.14928284459527        3.72273383816422       -0.33760465740095
H           -1.63578763551621        2.16708451405622       -1.05367486128435
H           -0.77611555647664       -0.49547562053128       -2.99194395404541
H           -0.06821050759089        0.92849409573319       -2.20975851348900
H            0.94633036462381       -0.12442524204140       -3.21238369131279
H           -0.17025869589136       -2.82729980646610       -2.13970360071967
H            1.50048452225098       -2.38302985727431       -2.52424799873063
H            1.10349842306991       -3.01644882899247       -0.92596800973867
H            2.56775789425203       -0.76912132474003       -0.96445123649898
H            6.73809870166252        0.74607476857552       -0.53759073043829
H            7.12242822654509        1.53023594729944        1.01462499680932
H            6.57066060126129       -0.16261172743888        0.96292893996400
H            0.41220178216089       -3.29305319664763        1.29239018799598
H            0.68044478582908       -2.03884933080866        2.52171041629657
H            1.48424330081069       -1.90652243462394        0.93987625115375
H           -3.60317013349823       -0.98818950165171        3.14126255588441
