42
 energy: -82.976043622725 gnorm: 0.000498803711 xtb: 6.5.1 (579679a)
C           -6.74849100216285       -0.41771905565749        0.85190725620620
O           -5.35018877642728       -0.24800411232907        0.62381766565712
C           -5.00787425947800        0.56847991751694       -0.37916249493859
O           -5.84753084517514        1.13633334055697       -1.06396105681828
C           -3.55685720826922        0.70719359152006       -0.57197253938572
N           -2.73883407007366        0.01386121599824        0.28047623922281
C           -1.44829366730058        0.14701574388533        0.08311053581022
C           -0.55210074992009       -0.63241434009913        1.03915296872706
C           -0.74481225876503       -0.10916410019802        2.46737355342557
C           -0.88079830500911       -2.12698066102380        0.95190577085870
N            0.82441248273678       -0.39347375412585        0.59792394217743
C            1.90909508360468       -0.90335487746840        1.16208368613293
O            1.97385105264556       -1.64147968568342        2.12799489801810
C            3.15879239292972       -0.45704364982297        0.43746135988229
N            3.24713063031676        0.32226621920983       -0.59884999007104
N            4.56684361596552        0.40016084599549       -0.86274939056938
C            5.03402986085880        1.18001518686821       -1.98811657259964
C            5.24129830150738       -0.32510391505714        0.00329940326977
C            6.69205011889831       -0.55764183373872        0.09981968904108
O            4.37731101090435       -0.87199387741561        0.83232867699046
N           -0.83920684015099        0.87769992810111       -0.84367514237829
C           -1.57638657872500        1.60491588264408       -1.73588893801037
O           -1.04804395866378        2.29905299062095       -2.61525578930155
C           -3.03642118592264        1.49883481567568       -1.57177099300503
O           -3.79869457205186        2.19998762834304       -2.43713359514321
H           -7.21555718002695        0.54519196321432        1.07436318260604
H           -6.84873415275061       -1.08930341163728        1.70258313238398
H           -7.22643224952838       -0.85226345395928       -0.02991349620717
H           -0.15845341644671       -0.69397866100086        3.17410508241324
H           -0.43785538297812        0.93429311627674        2.52769866916833
H           -1.80057234241302       -0.18465089533065        2.72617124927143
H           -0.30696077390935       -2.69258431684090        1.68389456466457
H           -0.65332108388837       -2.50071124029660       -0.04565829006400
H           -1.94455875560837       -2.26053369559389        1.14653570407404
H            0.88821934912734        0.22917067589224       -0.21214438096486
H            6.07633062814290        1.43660064546832       -1.82345043511362
H            4.93553459721934        0.58293214710317       -2.89432040038028
H            4.42298563708981        2.07727191542390       -2.06199073215566
H            6.92156063487559       -1.01683662203066        1.05948969924498
H            7.01110730743352       -1.22637557916005       -0.70182612609041
H            7.23562877965107        0.38013380987210       -0.00761938576126
H           -4.74920186826332        2.06020015829059       -2.24143618029099
