43
 energy: -83.882323413950 gnorm: 0.000615679223 xtb: 6.5.1 (579679a)
C           -6.04360950177283        2.21410946236449        1.08589366253024
O           -4.89637575330453        1.45575464908359        0.70310376568146
C           -5.00609675931375        0.75071285912020       -0.43105535864313
O           -6.01304992267025        0.75121550676018       -1.10586080686816
C           -3.76890616108638       -0.01232422068606       -0.73865131109834
N           -2.72481950044667        0.14490291950765        0.14007562617543
C           -1.62037376826340       -0.49543234353294       -0.05343616388676
C           -0.48399799256108       -0.38739332269966        0.94309125850578
C           -0.51748622268671        0.98634402916325        1.62757377450164
C           -0.69867369366576       -1.51520909600058        1.96816444799430
N            0.75563385415660       -0.59088343859100        0.19998587746193
C            2.00265905595114       -0.49644327438515        0.88263075385709
O            2.09901902604552       -0.70779910386905        2.10279885502137
C            3.05270223770615       -0.19856845206951       -0.01191446374712
N            2.90516033219657        0.06795063062063       -1.30670592698699
N            4.04712004577242        0.31296360231735       -1.86699901558945
C            5.08587686444244        0.19553609489343       -0.82981082769764
C            6.06471250093410       -0.92987079685740       -1.20174117071406
C            5.81893596425524        1.53728330703823       -0.67779716826352
O            4.39725153389368       -0.12843261616968        0.37003152745346
N           -1.44775137532253       -1.34777887395561       -1.10652621397793
C           -2.41379111397463       -1.57875835264094       -2.05285931012907
O           -2.24937576660236       -2.34260952639531       -2.99886541908139
C           -3.64825586729979       -0.84245698827412       -1.82596412109000
O           -4.62399638328112       -1.04460772107468       -2.72626517841458
H           -5.79311329145736        2.71275969988563        2.02004310282627
H           -6.90276077779057        1.55381037055139        1.22991414576722
H           -6.28377573431813        2.95252068825967        0.31650003495608
H           -1.48629114332191        1.13474200576864        2.10244228033958
H           -0.36265872871012        1.77447175583128        0.89155888007891
H            0.26424471460052        1.04216829990058        2.38351590204408
H           -1.70322869638042       -1.44136990087894        2.38313555463268
H            0.02477977604183       -1.43702803387999        2.77708615021910
H           -0.58524052239634       -2.48258168213556        1.48106579458395
H            0.77569779833376       -0.06569649737828       -0.66921369344729
H            6.55275849231188       -0.69555920175673       -2.14556515402371
H            6.81768002059262       -1.04489782527991       -0.42403256140195
H            5.51589032896283       -1.86442608445634       -1.30665867036319
H            6.28797868439567        1.80742205669910       -1.62170497238394
H            5.10224007009884        2.30910554913682       -0.40184218647623
H            6.58055889370337        1.46507908163908        0.09664450135733
H           -0.56849208657450       -1.84026329117756       -1.20285969198840
H           -4.30877943119175       -1.67846292439397       -3.39477750971459
