16
 energy: -33.392149594613 gnorm: 0.000477306446 xtb: 6.5.1 (579679a)
C            2.70029546488351       -0.27548426069296       -0.08103697812917
C            1.28291724279207       -0.23310834482242       -0.40038455969169
N            0.71977904272226       -0.66077038850455       -1.58259716333903
N           -0.52488457825209       -0.49244153466119       -1.50023978262654
C           -0.85485222230804        0.08243521576265       -0.24886709571020
C           -1.84805538967465       -0.73523013766817        0.58096162982457
C           -1.53933030652621        1.48970688531626       -0.55665745635317
O           -2.56312971645034        1.48863362536115       -1.14870205538872
Cl          -0.72554918299260        2.82932346459794        0.03660958245700
O            0.38567257707513        0.21226399506110        0.39970672595584
H            2.90759898221741        0.23818164821493        0.85479415631628
H            3.27701959268366        0.15152225374873       -0.90412147677203
H            3.00447903628864       -1.32462345743380       -0.00394265575834
H           -2.78799304715888       -0.79800880390539        0.03605406697140
H           -1.43381252331972       -1.72852960864064        0.73857480118961
H           -2.00015497198017       -0.24386955173360        1.53903726105419
