20
 energy: -37.579531662829 gnorm: 0.000838026731 xtb: 6.5.1 (579679a)
C            3.75182162683062       -0.71836764819317       -0.93108026399292
O            2.68861444722353       -0.06165341662739       -0.21254352215411
C            1.46481840005086       -0.41300933779753       -0.51030618067088
O            1.12767501748602       -1.23168668757269       -1.32340228718071
C            0.48285880737852        0.35807021287780        0.31763294499123
N            0.67879814442430        1.26096329720355        1.20169409358444
N           -0.52749559414809        1.67064491261044        1.68622877021330
C           -1.45886217108707        1.01851428448717        1.09943918902219
C           -2.91430736321988        1.10808776548171        1.28235138748733
O           -0.88933340440759        0.13147544793198        0.18043101113093
C           -1.54067262630819       -0.82149307556024       -0.72352212249513
H            3.68323911084804       -1.79566503010471       -0.77568373009890
H            4.67960355913585       -0.32341746591437       -0.52415573975718
H            3.66356608450206       -0.49189580023881       -1.99428813998641
H           -3.32061831393227        0.14347814154144        1.58744743853974
H           -3.39677532992126        1.40193800557858        0.34967408199551
H           -3.12371190931437        1.85101033302454        2.05025432834344
H           -1.16811029717947       -1.81188781472488       -0.47224838135297
H           -2.60831351928143       -0.73577263645620       -0.54859888097916
H           -1.27279466908017       -0.53933348754739       -1.73932399663967
