42
 energy: -83.656289296668 gnorm: 0.000752783520 xtb: 6.5.1 (579679a)
C            2.80634964979193       -1.44132636327415       -3.20353777200388
O            2.49837334590351       -0.91464327731627       -1.91849049798469
C            3.29764378352123        0.08012102091424       -1.48238821001438
O            4.21481526219783        0.50025000968036       -2.16226572447457
C            2.93964425544784        0.55190663311833       -0.12836330741660
N            1.81357164508599        0.02486783038546        0.44319484121803
C            1.50963389439065        0.41610135567106        1.66508694206670
C            0.26570953654689       -0.22450502499724        2.28148045637481
C           -0.09370253493729        0.47408209027678        3.59814211262316
C            0.58592072906763       -1.71252869580840        2.52628903548751
N           -0.81864238299123       -0.07612726970968        1.31275936771493
C           -2.06399394817518       -0.66840704106914        1.50064735557263
O           -2.42704021120467       -1.11749284944017        2.61212658847748
C           -2.90066114025453       -0.65811155523595        0.35585357530440
N           -4.15114977462403       -1.08634986952672        0.28913801314744
N           -4.64926147728864       -0.91467819423319       -0.90238941670519
C           -3.60191223017565       -0.29915705079553       -1.73364923315254
C           -3.27375041994699       -1.22603623791222       -2.91696195346898
C           -4.07973626828431        1.07309767819572       -2.24202817188842
O           -2.46998992784652       -0.14551337464744       -0.88919031515387
N            2.18631202693098        1.27850165952003        2.42474262601014
C            3.30502467158504        1.84916981173060        1.92507185428047
O            4.01426199098238        2.67179979521164        2.54506722973282
C            3.69442358621255        1.46052044078437        0.56981989912385
O            4.82586485120912        2.04307256179336        0.10538162903934
H            2.14981122926091       -2.29447029078329       -3.36610192882294
H            2.63765369120016       -0.68760062299108       -3.97808681273532
H            3.85093716542746       -1.76269842506238       -3.24590665359293
H           -0.94163586977355       -0.01349497843438        4.07652858226053
H            0.76013869163745        0.43904465854561        4.27441512840288
H           -0.34277285329947        1.51869937536287        3.40879735368050
H            1.43656156498503       -1.79754822653504        3.20221956396094
H           -0.26784848716038       -2.22374743924521        2.96986208814660
H            0.84043102992873       -2.19214812592614        1.58100938999020
H           -0.50509465351208       -0.01258553266394        0.35003286924776
H           -2.50270943963396       -0.78447165767681       -3.54559586585565
H           -4.17144630760837       -1.38719891409277       -3.51026707602983
H           -2.92300730640105       -2.18502485731953       -2.53912848223117
H           -4.31417642000447        1.71270494300815       -1.39239072430177
H           -3.30362087643216        1.54641605842352       -2.84112307520585
H           -4.97466574076372        0.94633614865755       -2.84762662277801
H            5.14373666899999        2.62303380341579        0.82782634195243
