46
 energy: -87.069440116745 gnorm: 0.000789892343 xtb: 6.5.1 (579679a)
C           -5.06092617663990        2.95901480295767        1.42118058856910
O           -4.23720152274403        2.16916692946507        0.57928579618820
C           -3.15318208986498        1.55556435634108        1.22024354309797
O           -2.97081919691776        1.76864822127714        2.42588794162506
C           -2.37804355814697        0.74816618785305        0.36424206719991
N           -1.29031857830805        0.15515293291736        0.92294910322977
C           -0.44956307494865       -0.57323399501280        0.28229314052838
C            0.65977408169157       -1.23259542207490        1.08632791739814
C            0.52205085492622       -2.76344324204533        1.08053649243743
C            0.58703517449698       -0.72675137126420        2.53624662113312
N            1.96735291196262       -0.81685004452215        0.53378685785152
C            3.15059241035306       -1.29513582783117        0.95139677638042
O            3.32035169694211       -2.19558953076578        1.76020333092734
C            4.30557732428102       -0.61536754979016        0.29982116798545
N            5.56750387697673       -0.82425657710331        0.51599628635935
N            6.25379908759426        0.03120344896285       -0.29556973370169
C            5.36816103216754        0.70904300926458       -0.95643503920059
C            5.60352218600666        1.76201786723593       -1.96837143429012
O            4.11603699723012        0.35025873853829       -0.62688556748478
N           -0.60208671805710       -0.80629093916542       -1.11784803994604
C            0.32866925321083       -1.61689179838625       -1.90161059857672
C           -1.65057281162728       -0.30751033727460       -1.82070595760270
O           -1.76893765871199       -0.54890314724009       -3.02442305368751
C           -2.71847859997996        0.53446323747565       -1.09548377313592
C           -4.05476831632830       -0.22198909758921       -1.28013531382636
O           -2.77993517237346        1.77249513122109       -1.81635546671499
H           -5.87141788329232        3.34958676234442        0.80598990899649
H           -5.48038352227450        2.35792892876738        2.23650946587584
H           -4.49703379441736        3.79312691381825        1.85483810486418
H            0.81780986491596       -3.18952938215746        0.12541546414753
H           -0.51952458184949       -3.02036006535900        1.27150488337486
H            1.13902037717840       -3.20818847903691        1.85987639535198
H            1.39125961106254       -1.16716189744308        3.12355905531811
H            0.67872981031059        0.35852577684965        2.55959603072347
H           -0.37000857010021       -1.00668356042349        2.97438096290002
H            1.97577081706280        0.00677267421027       -0.04695319812092
H            6.66915826884088        1.96114102043730       -2.04722461596704
H            5.22249970523566        1.43901630267807       -2.93716124355280
H            5.07906258660126        2.67455355514657       -1.68611665654861
H            0.44399391737015       -1.16184926121605       -2.88689038222474
H           -0.06811197223691       -2.62649496172345       -2.02906423150720
H            1.30116670555472       -1.66370034592788       -1.42367256074360
H           -4.23548247994087       -0.38379384926355       -2.34256499691985
H           -4.87616449174439        0.35766825361735       -0.86621819675031
H           -4.00565584168265       -1.18423892114431       -0.77197472888171
H           -3.43028793978111        2.34329755238240       -1.38152711308447
