42
 energy: -83.588794580756 gnorm: 0.000698606645 xtb: 6.5.1 (579679a)
C           -6.89413716689524        0.58864931712328       -1.76402641551426
O           -5.69892154341400       -0.17059669386713       -1.74235422042060
C           -4.76140080539997        0.22911363855595       -0.82653540676009
O           -4.99606284451528        1.19271257487088       -0.09457514154203
C           -3.54944741987372       -0.55770100295669       -0.81011876776481
N           -2.63916179237323       -0.12378776405254        0.14656735989376
C           -1.51666119206883       -0.72520572356901        0.29561858123774
C           -0.53302162899403       -0.31889768818211        1.38165968411195
C           -0.85039774030506       -1.18809268793638        2.61323519322263
C           -0.72245702636958        1.17160983957543        1.71129073615238
N            0.81081439440380       -0.61601647306689        0.87934564887103
C            1.93885627994768       -0.11765694774278        1.68720914013106
O            1.85125142717173       -0.07394550347009        2.96268268949136
C            3.01632173389775        0.18227332671851        0.90799642901532
N            3.09006676010754        0.16326259208552       -0.50568681717922
N            4.31137689804969        0.61834894246314       -0.75713765912941
C            4.74345556601739        0.74985067081753       -2.12792906177425
C            5.01651991060587        0.91906842289558        0.31111734864032
C            6.41142266031157        1.42410874326282        0.36879767728359
O            4.29190661457566        0.66686138908671        1.43875822659198
N           -1.17751760614726       -1.82403026779169       -0.46391793006140
C           -1.96884380186535       -2.34870941768063       -1.45287892566773
O           -1.57090496042381       -3.32889896461868       -2.09738173722912
C           -3.29087595138763       -1.66902495691748       -1.66309376448278
O           -4.06092142248365       -2.11006252236091       -2.54842285397365
H           -7.39443988658838        0.56299952658292       -0.78957222502548
H           -7.54424345311010        0.14594794240828       -2.51852554993624
H           -6.69127927948207        1.63346141139727       -2.02398430094701
H           -0.66752093742938       -2.23715475744114        2.37944343260351
H           -0.22621134846894       -0.90371672493269        3.45888383664793
H           -1.89813004781640       -1.06483467784803        2.88946132258954
H           -1.76956015193393        1.36507383670217        1.94668640215464
H           -0.43922102570412        1.78340707476038        0.85425279871332
H           -0.10775349720222        1.45103266895786        2.56607202757828
H            0.90960480706120       -0.22375036597075       -0.05717816627726
H            3.95505433168893        0.36341581703460       -2.77025448983960
H            4.92772400067906        1.79870661242012       -2.35855564758791
H            5.66105494467315        0.18386595304243       -2.28264843873723
H            7.12611615371780        0.66207318521648        0.04815952316544
H            6.64431405106117        1.70893476625188        1.39307926208926
H            6.54014354795525        2.29262125392405       -0.27868006971065
H           -0.27691455167852       -2.25531736574912       -0.30685773064271
