17
 energy: -27.463136326178 gnorm: 0.000807498152 xtb: 6.5.1 (579679a)
N           -2.60580850347178        0.28169406571639       -0.64368597170157
C           -1.88150834396007       -0.12194721975356        0.56276920383504
C           -0.38647185949776       -0.09233774526008        0.32870207661691
C            0.35732221465459        1.04400824255472        0.64393441644199
C            1.72043887129829        1.09637996493575        0.38621265691327
C            2.32057381074565       -0.00613199406058       -0.19404817517120
F            3.64130276053269        0.03475844959359       -0.44599541377258
C            1.61625425734785       -1.15009299170109       -0.52349159349265
C            0.25457372186075       -1.18350551367843       -0.25745997799584
H           -2.30103684913091        1.20827213769578       -0.91340829999241
H           -2.36115150309453       -0.34723850673505       -1.39786635955982
H           -2.20451314313900       -1.13201429403079        0.83506532358393
H           -2.15436980726932        0.56129365196098        1.37326454238164
H           -0.13049365136886        1.89835081522076        1.09913219813497
H            2.30672752292025        1.97309438422795        0.63022935966132
H            2.12268995208510       -1.99299662890723       -0.97620981155637
H           -0.31452745051297       -2.07158681777913       -0.50714517432662
