21
 energy: -30.735416833540 gnorm: 0.000431210216 xtb: 6.5.1 (579679a)
C           -3.87268475267000        0.07287881806233        0.03148631782527
F           -2.68119161676185       -0.19570366526637       -0.73135474022535
C           -1.28144852396009       -0.08547492978474       -0.29475934246536
C           -0.67029383474218        1.12268974327465       -0.50731520943585
C            0.66480799933534        1.20013054378542       -0.12638860406516
C            1.31429775561673        0.10314764144528        0.44170788204376
C            2.78388451247869        0.18456175530484        0.79049318477206
N            3.58625237906430       -0.28976893108573       -0.33328945152365
C            0.61741399053680       -1.09239116697409        0.62560746897933
C           -0.71819600237635       -1.20673658811801        0.25696167426428
H           -4.65682344540255        0.09815660672759       -0.71961974510297
H           -3.97161710431168       -0.75123409226591        0.73205978616838
H           -3.71137436940222        1.03111154635050        0.51642717407561
H           -1.19347641147789        1.96055577975402       -0.94552199131329
H            1.19672262184659        2.13251148748394       -0.27167721693311
H            3.06512125292312        1.21769221142487        1.01079891427849
H            3.00128607618725       -0.43845854704483        1.66197375274594
H            3.33591395028294       -1.24958306037883       -0.53043001194115
H            3.35422904007595        0.25637391159739       -1.15238842896565
H            1.11366067487180       -1.94869731950065        1.06580738092795
H           -1.27648319211408       -2.12176074479106        0.39307420589110
