20
 energy: -37.645510959877 gnorm: 0.000384556693 xtb: 6.5.1 (579679a)
C            4.12494844357648       -0.03707844994834       -0.19105909398516
O            2.69661880105007       -0.22327866871691       -0.21104422060918
C            1.95298753388734        0.83646342620635       -0.01685732067284
O            2.32936829770067        1.95737094676883        0.18309051019984
C            0.48673199925079        0.48920305736995       -0.07385130105087
N           -0.50925157698758        1.30749286644833        0.07842837482776
N           -1.60723543920946        0.54761441461206       -0.06777004380341
C           -2.92267321774065        1.14912694436727        0.04163787641640
C           -1.26145723534922       -0.70316468410819       -0.30356341319389
C           -2.10971250326004       -1.88202364059069       -0.53180915962130
O            0.05397240024838       -0.76218049991410       -0.31118131052459
H            4.40655730665218        0.70422940573462       -0.94067517761939
H            4.43396554850417        0.30057372266095        0.79926897186902
H            4.55796074746137       -1.00712448936456       -0.42221111288176
H           -3.45537894396051        1.00858594091747       -0.89712959931211
H           -3.46507818840525        0.66732919505508        0.85302629913988
H           -2.78686133851902        2.20758674005529        0.24877258003528
H           -1.93867182885754       -2.25916955704869       -1.54242364989496
H           -1.82739628284149       -2.67124903880685        0.16720330070406
H           -3.15939452320049       -1.63030563169815       -0.40728451002285
