42
 energy: -82.979759679812 gnorm: 0.000753530073 xtb: 6.5.1 (579679a)
C            6.60507241499834        2.14380227839879        0.51814150172717
O            5.60719583495195        1.42687069860069       -0.19636808858651
C            4.56054791170177        0.97912715391452        0.53936045283083
O            4.50276334278442        1.19963687689754        1.74301161652176
C            3.55892909263790        0.23787966691844       -0.21485655066244
N            2.52317954424916       -0.21638244434324        0.57867654045343
C            1.56131790413264       -0.90004997095002        0.08076093995725
C            0.45580852276394       -1.40683104531867        0.99120581932641
C            0.76346680708278       -0.99396079316488        2.43120797812645
C            0.29734073597457       -2.92781360426142        0.90317053064879
N           -0.82570789034081       -0.74429710499011        0.63882690670975
C           -1.58608971027165       -1.02810164083721       -0.41774977034872
O           -1.35673385313526       -1.81391655213877       -1.31834799970913
C           -2.86485611215989       -0.23402653698652       -0.43636564701216
N           -3.80009967955102       -0.29026014938777       -1.33607159998679
N           -4.74340155345601        0.56941861610233       -0.90946838444974
C           -5.95308515874172        0.76441995776404       -1.68037160019005
C           -4.36957879932689        1.12704134873173        0.22196532120077
C           -5.08101347413036        2.11685698644341        1.04609576022171
O           -3.18798959045305        0.63743431344732        0.54203514743249
N            1.51184195273824       -1.21442784050659       -1.26008797759030
C            2.45290494512160       -0.80594208976225       -2.17020143175487
O            2.32409081573903       -1.10090110096787       -3.35576845494513
C            3.61123164532538       -0.00672152967135       -1.61250083192945
O            4.50051667102828        0.37329607448176       -2.39435835003337
H            7.37129706076258        2.42955168426174       -0.20163414581474
H            6.18038814679305        3.03907619655666        0.98205808385218
H            7.04581882670705        1.51770502878217        1.29997024321268
H           -0.03433406390937       -1.32272669769590        3.09337809315160
H            0.86539082640823        0.08834052042544        2.49789614146675
H            1.70141014397112       -1.44871790555017        2.74693288698877
H           -0.54296941343862       -3.24436565053919        1.51804319677625
H            1.20566637485892       -3.40071792094699        1.27465979666752
H            0.12533543639819       -3.25469925772002       -0.11995368579321
H           -1.18109413356024       -0.08190272235750        1.30659465372922
H           -6.77860206004462        0.93694828778336       -0.99498189574759
H           -5.82343043701018        1.62855421392914       -2.33134695019817
H           -6.12375185324571       -0.13101439812244       -2.27309450735642
H           -6.00034024067745        1.67769837994625        1.43695898690192
H           -5.35528490946644        2.98100349026235        0.44039073845579
H           -4.44668770710392        2.42693714461543        1.87383483033377
H            0.72353468289369       -1.73381796204594       -1.61851729458444
