42
 energy: -82.984392515580 gnorm: 0.000471193295 xtb: 6.5.1 (579679a)
C            3.42224032255875        3.61324716976222       -1.91888883650915
O            2.80337261024168        2.83144149477123       -0.88866165400778
C            2.74345779360860        1.52718817741837       -1.08188022594375
O            3.16035300831044        0.95547100249903       -2.05722727432087
C            2.06359655421487        0.80766691695864        0.06723861391389
C            1.92468447946746        1.43911145165436        1.41264923205641
O            2.67248421078276        2.27526132492949        1.84808992444785
C            0.75503714524136        0.87755146677584        2.22667015080875
O            0.21693891206566        1.49159643423269        3.12359674778933
N            0.35678756370751       -0.34961910591148        1.82602747698230
C            1.02046645266766       -1.17551581490757        0.82931608105229
C            2.12659482460929       -1.99120840668431        1.51494659912633
C           -0.04780501566497       -2.05173776105428        0.10095883048954
C            0.57423415003437       -2.74115489118826       -1.11783399924843
C           -0.68626016756200       -3.08688411111523        1.03162468217636
N           -1.07572336231432       -1.10284211892654       -0.34134530753482
C           -2.16708940206660       -1.45438150498961       -1.05221206664541
O           -2.38741300148565       -2.55875799095830       -1.52074999069692
C           -3.11080958344182       -0.32279355876840       -1.24006219364319
N           -4.21910206385565       -0.32424831372643       -1.91289421012915
N           -4.75090819080808        0.92492272567325       -1.79917491139433
C           -3.93607265520534        1.61275904802351       -1.06171967993099
C           -4.07071205065688        3.02416381541448       -0.64080119973402
O           -2.87557057280854        0.88265547655547       -0.67529976732923
N            1.66130585695393       -0.37656876942530       -0.17389588833343
H            3.41078473979455        4.64421034748596       -1.57237259629930
H            4.44720340533005        3.27243325325933       -2.07879301312022
H            2.85675176802594        3.51513962723613       -2.84769129891245
H           -0.33903553794992       -0.79419015370842        2.40455694036149
H            1.69787880987133       -2.61258420698778        2.29663392971802
H            2.64371686900569       -2.61704558925517        0.79151019008560
H            2.84023968282501       -1.30163224535176        1.96282357941089
H           -0.17617912787889       -3.34666648302777       -1.62249371856186
H            0.96279251839665       -1.99925184797964       -1.81378626466198
H            1.38653688788172       -3.39254286682348       -0.80219404574206
H           -1.11633002274756       -2.61152898410888        1.91039623299476
H           -1.48001833216685       -3.60690206135107        0.49650145027545
H            0.05282429179649       -3.81954938084058        1.34817417217587
H           -1.05893338057911       -0.18605364864425        0.07923430893303
H           -4.17532121430603        3.08050361868624        0.44277247769544
H           -4.94667251741681        3.46354596003207       -1.11210322213140
H           -3.18032165847887        3.58478850435378       -0.92338125566672
