42
 energy: -83.588757360953 gnorm: 0.000282247568 xtb: 6.5.1 (579679a)
C           -5.96801853176925        2.31005461454335       -0.31804262937180
O           -4.83197941688636        1.48917499550115       -0.11668963688463
C           -4.84152701397013        0.74310120568265        1.04715832554395
O           -5.79615059340010        0.83601950704976        1.81419725066634
C           -3.66676314751192       -0.08238090618264        1.18948984032686
N           -2.74117083873828        0.01522922068383        0.15818908787642
C           -1.67046898855994       -0.69118626692767        0.18023077929818
C           -0.68285110512277       -0.66810347664566       -0.97567951342321
C           -0.73756139962511        0.70380091750659       -1.66871353859246
C           -1.12450438219551       -1.77848843278221       -1.94796582991490
N            0.64138288920459       -0.96169608412039       -0.42229867056540
C            1.78479162608223       -0.81118801425191       -1.34157721576743
O            1.66265233165203       -1.11207758963903       -2.57883775717795
C            2.90482933702176       -0.39617675685524       -0.68512415305326
N            3.02775278328842       -0.04473743494234        0.68043736120299
N            4.29710415303950        0.32924386575577        0.78959556303967
C            4.79472118671933        0.76545757002143        2.07224597002992
C            4.98899717465527        0.25634372141491       -0.32605472049324
C            6.42382133843464        0.57896298794027       -0.52965776894885
O            4.20106716038328       -0.20396226628499       -1.33898165954547
N           -1.40712891271265       -1.57762407518016        1.20115632211747
C           -2.22676859259957       -1.77103526322740        2.28392510534414
O           -1.90074212353284       -2.58665302632641        3.15728547702893
C           -3.48653532562286       -0.95493177177291        2.30281149509122
O           -4.28130233973868       -1.08797144459473        3.26133928844429
H           -5.81990109980690        2.84189228869371       -1.25771239669519
H           -6.08113095388823        3.03381071237823        0.49687580672069
H           -6.88229971221485        1.70895233452912       -0.37951731702805
H           -1.76737485212539        0.93588778113260       -1.94194247223347
H           -0.37329382292191        1.47908923815608       -0.99420447260756
H           -0.12291207907228        0.69683492316932       -2.56807017177243
H           -0.50560926801870       -1.77874088308921       -2.84370310964323
H           -2.16408383198407       -1.61904497451310       -2.23680569695374
H           -1.03858270460319       -2.74999904368695       -1.46090994827617
H            0.81006156382384       -0.34684093361196        0.37418363357132
H            5.17132914252247        1.78476942971844        1.99561815585858
H            3.97456603130601        0.72551632003022        2.78586782314642
H            5.60252778574718        0.11079995005933        2.39783278456165
H            6.67949440765145        0.41284743116211       -1.57424416695089
H            7.06344696158575       -0.04968796203231        0.09340792714540
H            6.63526775475170        1.61961163366552       -0.27651120002466
H           -0.54515459126061       -2.10487404212989        1.16729104890830
