46
 energy: -86.310628099526 gnorm: 0.000348714328 xtb: 6.5.1 (579679a)
C           -5.02034455928776       -1.57316063331476       -2.74121262157414
O           -3.95587621931055       -1.16698980177513       -1.86489582929829
C           -4.25731571684755       -0.29464049877346       -0.93094855334516
O           -5.36031113618297        0.18997884077625       -0.76780148467926
C           -3.11358370867422        0.06976383699645       -0.04853214679323
C           -3.29603577610373        0.92451154122328        0.99958159447245
O           -4.44270948897999        1.48452620997124        1.33612738010957
C           -2.18143374347835        1.20131816374822        1.91416542545548
O           -2.22791574856145        1.70505523280287        2.98791761972447
N           -0.81455506702629        0.85647727927922        1.33883892425084
C            0.12775082979777        0.69399945847537        2.47774943140910
C           -0.47004330865237        2.11407163664230        0.58140425996573
C           -0.83866953728165       -0.28804235963159        0.36242566645477
C            0.36291408553206       -1.17671725306494        0.10025798171102
C            0.43285618779516       -2.26592033792347        1.18249620188534
C            0.17744627642189       -1.85541728402296       -1.26812425748222
N            1.62442109889291       -0.44525327427789        0.11241099561950
C            1.91369469504906        0.48539514292204       -0.83682086272091
O            1.08581932347868        0.97086406817315       -1.58950860560482
C            3.32989270429337        0.89634018977568       -0.81655718454159
N            3.93444920755936        1.74256143062172       -1.59148083983595
N            5.23165235574565        1.78681027165643       -1.18828988371010
C            5.34392627114749        0.96498669867462       -0.18950554439063
C            6.55102263957280        0.65202086495221        0.60410841869750
O            4.17536964336813        0.36751420803531        0.09459283523691
N           -1.90652188874165       -0.56302795228655       -0.25205754752401
H           -5.80067821449083       -2.07065794892385       -2.16245278582087
H           -5.43765567868414       -0.69845013500567       -3.24351588877431
H           -4.57965620839091       -2.25865684402370       -3.46147865009960
H           -5.15642071535251        1.21087021224060        0.70308116632456
H           -0.22314892736009       -0.12152501028805        3.10273806225737
H            1.11708388495431        0.49461024912918        2.08361420793236
H            0.13011635380895        1.62333740707266        3.04209489316525
H            0.60585187193406        2.13798277659211        0.45338458937614
H           -0.96703515260359        2.09003499213306       -0.38463801564987
H           -0.79194970486211        2.96908301341890        1.17098730932782
H            1.16445318411517       -3.01411138211760        0.88166738528632
H            0.73399939527149       -1.85616508941748        2.14216282101081
H           -0.53947495189206       -2.74420129957892        1.28746653613454
H           -0.67971767286451       -2.52461317855012       -1.22921217630518
H            1.07206986188265       -2.42965599488299       -1.50031325253778
H            0.01092608115506       -1.11285546684071       -2.04609659580956
H            2.39287210631125       -0.87407903472842        0.60363101991731
H            6.79308159837970       -0.40631098623209        0.50603012271050
H            7.38835504545427        1.25349005911605        0.25781844503185
H            6.36102942369492        0.85484598123896        1.65772843300185
