20
 energy: -37.645243049931 gnorm: 0.000815574166 xtb: 6.5.1 (579679a)
C            4.11724481936622       -0.60976933806670       -0.15708197655590
O            2.67894759789023       -0.65200165064792       -0.08834004531806
C            2.05274192425040        0.49373341106403        0.03925422580433
O            2.54776384330194        1.58191304835739        0.11193269218202
C            0.56291882559281        0.26323457789608        0.09182745355721
N           -0.08093580901327       -0.86402151504011        0.04900206161651
N           -1.37693411322745       -0.52409859956926        0.14008140382266
C           -2.39778039471480       -1.55184914985785        0.14695355713537
C           -1.49432706668740        0.78673009929471        0.23808831978453
C           -2.71358927691755        1.60055868361129        0.36003266704285
O           -0.28461259399803        1.30119447485580        0.20901958477663
H            4.44853941511295       -1.64536420659683       -0.17459486662112
H            4.51061085352220       -0.08910672657162        0.71726557454009
H            4.42170751587327       -0.08959158286720       -1.06664730086118
H           -3.26888972396879       -1.18322316425633       -0.38914142816601
H           -2.66270708343375       -1.77646383476457        1.18001260087351
H           -1.98855479098918       -2.43502137169462       -0.33735351310872
H           -3.34332240919292        1.45903219448457       -0.52034640513013
H           -3.28607297684965        1.28344061490370        1.23280413940829
H           -2.44274955591731        2.65067503546579        0.45362525521706
