46
 energy: -86.317550479693 gnorm: 0.000390759975 xtb: 6.5.1 (579679a)
C           -5.69441257291291        1.22794269306968       -1.59646056296472
O           -4.48721779446488        0.65731843546999       -1.08042102151925
C           -4.27185686707154       -0.62930805253641       -1.35596920812609
O           -5.03905248753266       -1.30996106190815       -1.99408032893574
C           -2.98118757935260       -1.11244101058791       -0.78151151289974
N           -2.22011104326381       -0.18066428702100       -0.13180394864393
C           -1.09198753983141       -0.48583246236350        0.41839661449502
C           -0.38360552385577        0.66207091742697        1.12211409607902
C           -0.57104681466260        0.54792432939291        2.63972992995707
C           -0.94513167085984        1.99659671445301        0.61810824673536
N            1.05349402166116        0.61266862732974        0.75267683134150
C            1.94725530960362        1.41687045298271        1.29534506610811
O            1.82136695223515        2.24902264452123        2.14960754020840
C            3.43713079878643        1.15350210946704        0.73750764090396
C            4.26919742233886        0.71612089955531        1.94250629297914
N            3.85385913298242        2.34011289255892        0.11162726715870
N            4.05900288015667        2.12970462181234       -1.12149250055418
C            3.82051206323257        0.80745445139787       -1.36454421697700
C            3.95022979686491        0.14608084707454       -2.65755359565295
O            3.44885375875505        0.19731190658841       -0.29192163026970
N           -0.59929225008406       -1.76616776515964        0.40618417514646
C            0.64713323289286       -2.21225477878897        1.03002136932254
C           -1.26529717538080       -2.77683373222343       -0.27190773465777
O           -0.82241514908958       -3.91588518046074       -0.33672602051443
C           -2.53247226705614       -2.40068432377789       -0.88485708118446
O           -3.18092561142082       -3.37853318867149       -1.51721823281822
H           -5.73554791371950        2.25102483796848       -1.22841704973020
H           -6.56006652107507        0.66136632360138       -1.24415170588571
H           -5.67415412764775        1.21864419219170       -2.68894170464854
H           -0.06158900157548       -0.32517463852666        3.03914316544138
H           -0.18456684016377        1.43642789301729        3.13530153436087
H           -1.63595254328859        0.46191224341261        2.85296062802546
H           -0.41794843242873        2.82031653397897        1.09541908558114
H           -2.00456680346471        2.06087440698414        0.85970006634996
H           -0.82390699777426        2.06706095025802       -0.46112851436924
H            1.32431891892348        0.01964604733196       -0.01216312241011
H            3.87108865773528       -0.21953612792521        2.32717796919903
H            5.29992358280992        0.57458538595056        1.62523789550901
H            4.20894390803601        1.49067910890204        2.70498932837314
H            3.70704364080616       -0.91045195408041       -2.57916521807167
H            3.29536308113296        0.63502382559087       -3.38270811690135
H            4.97261675566976        0.27584950602205       -3.02191986761612
H            0.46250626779997       -3.18467104931160        1.48698961280884
H            1.40882293787250       -2.32121612175194        0.25927068330532
H            0.97905130762813       -1.50768659783130        1.78120128022789
H           -2.65340389995101       -4.19680946533442       -1.46131842424624
