46
 energy: -87.070294328247 gnorm: 0.000791497697 xtb: 6.5.1 (579679a)
C           -4.33379517276052        2.10195005234153       -2.90718145346253
O           -3.32120832428361        1.40739320234041       -2.20311536378483
C           -3.68582650314806        0.96800791536444       -0.92964871715903
O           -4.83142277193737        1.20668813099507       -0.51917635504091
C           -2.65781025226279        0.27330820038944       -0.25979244199372
N           -1.48939469071346        0.05590576109302       -0.91507331748310
C           -0.48524016222798       -0.58244105900313       -0.43052705083028
C            0.70107109919034       -0.82140214973550       -1.35057626657462
C            0.90152571515756       -2.31950609105462       -1.63162585367761
C            0.44926522912923       -0.08910595614298       -2.67848225961905
N            1.91450067105276       -0.23594049221014       -0.73864944251978
C            3.14682085249400       -0.35026372566779       -1.26027808745951
O            3.45466621440884       -1.00983280423085       -2.24252750257465
C            4.17242312988739        0.41192999929203       -0.49511897989989
N            5.44108197933228        0.49723498895038       -0.75332523587912
N            5.98766951058012        1.29023933412629        0.21219172232487
C            5.01928876324395        1.63957635286367        1.00019988685614
C            5.09909950761373        2.49804136602104        2.20223373735514
O            3.84393596129476        1.11923968235925        0.60846904315752
N           -0.52875708908057       -1.11918647143433        0.89209926802512
C            0.59057002868144       -1.82732685889487        1.50954360097092
C           -1.63006433561302       -0.99553509324683        1.66909461470896
O           -1.65832571714724       -1.45585164314776        2.81647655245498
C           -2.86361897949342       -0.23762276297939        1.14765420049023
C           -4.07301067892239       -1.19063219629646        1.25555361633627
O           -3.05731108017693        0.86438581967583        2.04992115469891
H           -5.21844065526896        1.47082419334033       -3.05578176377898
H           -3.92142236884105        2.37946262379917       -3.87827158717844
H           -4.64004041317336        3.00866785735768       -2.37097692358539
H            1.55914848112984       -2.46469349043407       -2.48713091765008
H            1.33568971219624       -2.83223439943050       -0.77711845563346
H           -0.06566884618074       -2.76815266324026       -1.85636364215125
H            0.30632610988861        0.97559598518039       -2.49787381775057
H            1.29663101013015       -0.22848550026786       -3.34770631495759
H           -0.44784208057713       -0.48725283932546       -3.15029422000846
H            1.77899844274465        0.43460407787772        0.00145225403069
H            4.72821385491853        1.95706906164345        3.07278593832337
H            6.13187294460107        2.79425653091133        2.36927759435939
H            4.48257611033047        3.38735130628811        2.06898461663633
H            1.53291551505342       -1.52704035632733        1.06355453271226
H            0.61067167136343       -1.58266411741516        2.57270578889110
H            0.45998149191057       -2.90601973886313        1.40229110351588
H           -4.12795813163757       -1.60463608242565        2.26167772517692
H           -3.96530649834794       -2.00435009134555        0.53940101472265
H           -4.98984105198355       -0.64236001098253        1.04555626844491
H           -2.95264020253703        0.54080415184776        2.95412273646633
