42
 energy: -83.621971192775 gnorm: 0.000735472019 xtb: 6.5.1 (579679a)
C           -5.04524085674010        1.77789542259849        0.96526662894567
O           -4.45219657419372        0.60450983683016        0.50106177140281
C           -3.13970981394697        0.19022934907522        1.27307982942684
C           -3.66530626450060       -0.78515591590643        2.38843819529702
O           -2.50071646428522        1.20887520489131        1.74488727955111
C           -2.37463673224004       -0.62128942190891        0.16227476241371
N           -1.27255785659865        0.03114415216731       -0.30197661511664
C           -0.52293211170223       -0.47372132825754       -1.22585073212447
C            0.70435614361194        0.29509501615522       -1.68631158499582
C            0.39488499354745        1.79275865232738       -1.62037818871138
C            1.16800715132478       -0.08866558203010       -3.09433753081066
N            1.82069415816333        0.05258321977464       -0.74176537707531
C            2.29036204319183       -1.17121426433284       -0.45943220924202
O            1.82975194270101       -2.22617014365100       -0.87161105474840
C            3.45366342599645       -1.15013909503960        0.47188351413712
N            4.00334935482751       -2.16677590975687        1.06181424438659
N            5.02539292998820       -1.67559249441099        1.82305366882396
C            5.03605911542504       -0.39231078370360        1.64778173957353
C            5.96481026342942        0.59503225366794        2.23956727356561
O            4.06439062985526        0.00752455771861        0.80961503140126
N           -0.81998777517822       -1.69509599505134       -1.78360637867771
C           -1.89914112063816       -2.45554091014587       -1.40744391018979
O           -2.08756441973202       -3.54540601552183       -1.98078555400650
C           -2.76006004609569       -1.88623383656960       -0.32558346893755
O           -3.75057046653226       -2.57462349842444        0.07129232376001
H           -5.74153181496524        1.60048081126431        1.80683128590272
H           -5.62211013694060        2.23628400957794        0.14986176038406
H           -4.29771310755743        2.51835838281224        1.30302728140631
H           -4.44874888729063       -1.44733082525659        2.02498752535965
H           -4.05853112830238       -0.18011719138852        3.20586119393942
H           -2.83115044754039       -1.37800334367865        2.76505563705822
H            1.28539128179613        2.37720631972293       -1.84100478267104
H            0.02757650215658        2.05018503475209       -0.62556395563316
H           -0.37430519844243        2.03741305911946       -2.35156621646318
H            1.98514609112539        0.56277804070904       -3.39853405485853
H            0.34693931317763        0.02678267709797       -3.80021891494190
H            1.52355683881802       -1.11726462635734       -3.12378495196495
H            2.35873258690757        0.84917749270766       -0.44916531351912
H            6.48959812929760        1.12908550878871        1.44818621636794
H            6.68589361121942        0.08514511382116        2.87318005530513
H            5.41261775203636        1.32641271477706        2.82939141363041
H           -0.20646603516127       -2.08682864896372       -2.47747783736303
