16
 energy: -33.392104484912 gnorm: 0.000806150559 xtb: 6.5.1 (579679a)
C           -2.69710999636371        0.05565881493247        0.48494088195267
C           -1.31062220540283        0.01971632250348        0.04783028165392
N           -0.88990937077647       -0.07682174432192       -1.25874784336556
N            0.36987821513433       -0.08217775321384       -1.25961416044509
C            0.85375400741014       -0.02047509313357        0.06918402065732
C            1.81654214473551        1.13165596816782        0.35629129198570
C            1.64803821511612       -1.39364227264443        0.29048057145869
O            2.69387743631292       -1.51528716216979       -0.24684650268731
Cl           0.88786181413087       -2.51326045216634        1.27709561323784
O           -0.31034230454738        0.05785757514022        0.84996183903623
H           -3.15739146337989       -0.91319695781340        0.26604212135685
H           -2.76603752577795        0.26450560762740        1.55015337744331
H           -3.24730193031289        0.79558176410687       -0.10065425257341
H            2.10201701676307        1.10482275073300        1.40532915183638
H            2.69486746136503        1.01546633243178       -0.27544447993802
H            1.31187848559309        2.06959529982022        0.13587808839045
