33
 energy: -58.558134668842 gnorm: 0.000472514452 xtb: 6.5.1 (579679a)
C            4.79566566063787        0.75721263166530       -0.04454209127866
O            3.57892337612208        0.12676809499559        0.35106951136278
C            2.57034421072953        0.17461326689946       -0.54563922626568
O            2.72035289859101        0.71751578693300       -1.62273135409166
C            1.30142872133249       -0.46846260078035       -0.09424387555751
C            1.23875951514811       -1.39744066146932        0.95216764969466
O            2.35990217894498       -1.85861989665347        1.66002885389494
C           -0.01605692049151       -1.98684815002507        1.30235487489686
O           -0.22318762466336       -2.78469699991233        2.23678588420878
N           -1.06699595351935       -1.65571219359163        0.46508822133589
C           -1.05065575877906       -0.56053929676073       -0.50208644265216
C           -1.61945524876667       -1.12498749915216       -1.82547033351952
C           -1.94175038561759        0.60633390556682        0.05867731611970
C           -2.09404508252088        1.72703261234364       -0.98025555381713
C           -1.29040975596511        1.17751158610055        1.32364549451544
N           -3.24547580822089        0.05287950761428        0.43524572613770
N            0.26022983532119       -0.04016301973751       -0.79349351739226
H            5.16666203006367        0.32006537879739       -0.97582718644442
H            4.63613646213976        1.82884769414500       -0.19212312791791
H            5.51443826097321        0.59522578372475        0.75597932051752
H            2.96271010296913       -1.13165467094421        1.85932607058493
H           -1.98982636104269       -1.84966816586516        0.83101484848027
H           -1.03135248878034       -1.99693989945077       -2.11189159577710
H           -2.65748866141430       -1.42886001054299       -1.70951230962083
H           -1.54485113428883       -0.38172725638842       -2.61634547483417
H           -2.55032795666009        2.60471903680722       -0.52306636639768
H           -1.11113562185548        1.99982487340308       -1.36892152144961
H           -2.72746442578327        1.40917035974881       -1.80717708188282
H           -0.30036868086713        1.57016008029881        1.08968604732124
H           -1.19548501388854        0.40489311185039        2.08752548205202
H           -1.89804735147119        1.98799084587837        1.72529985918669
H           -3.75780301468078        0.73697453140864        0.97454865355375
H           -3.79337200369590       -0.13141876690634       -0.39511375496464
