46
 energy: -86.308738629713 gnorm: 0.000593706794 xtb: 6.5.1 (579679a)
C           -3.06648166399425        3.18481931120138        1.67856908563390
O           -2.80892638600687        1.84425667036246        1.20078827367809
C           -3.67276654800763        1.28418841564260        0.42189466925347
C           -4.34668146642455       -1.06878067965144        0.72144980259048
O           -4.69967070616633        1.71255325477487       -0.00341937348621
C           -3.22785957187561       -0.22131502088265        0.06871380511247
N           -1.98706091066654       -0.49242445446835        0.69153542495710
C           -0.90971454234760       -0.77272720445176        0.06261659826888
C            0.30789083976964       -1.03402299193620        0.93823681148409
C            0.45784403434686       -2.55339282187249        1.11451818909654
C            0.10132407334578       -0.36495743506053        2.30516628400425
N            1.48125595456933       -0.43388355771738        0.30546928166723
C            2.74516500475138       -0.59988832723168        0.78586051965120
O            3.07792917050753       -1.38774116824707        1.64663860835359
C            3.68264938346030        0.30376023915598        0.07890076325053
N            3.36268400767250        1.18185428612477       -0.82541220100535
N            4.51711941867923        1.79581069614216       -1.20088351812835
C            5.47011149148154        1.25457312435348       -0.50039071341249
C            6.91345735276136        1.57674534964166       -0.53587954169115
O            5.00375445594319        0.30734502030794        0.32565984142189
N           -0.85101404732526       -0.88746564552333       -1.32656574555009
C            0.33263389584796       -1.29786407873847       -2.09086520541888
C           -1.93606355695494       -0.61283650907740       -2.10542183466960
O           -1.95048847068813       -0.65038020007473       -3.32146970165447
C           -3.18933285730436       -0.30574233995145       -1.37738703075462
O           -4.22992982370641       -0.10311241745513       -2.08438634635986
H           -2.56821004314962        3.88781596302653        1.01096991556461
H           -2.63922685106306        3.23784071517004        2.67770241943170
H           -4.14003578058012        3.37332693933001        1.69995111077336
H           -4.35074866847363       -0.87853695999948        1.79207519859523
H           -5.30536376042701       -0.79762376730270        0.28476826659295
H           -4.13599444677433       -2.11996253498805        0.54066248241414
H           -0.49961188703616       -2.96465176687849        1.42999475470591
H            1.20302524782408       -2.76708307702504        1.87826207224359
H            0.75776361330504       -3.03204922340502        0.18533299413739
H           -0.08291697554838        0.69963337144717        2.17254489726434
H           -0.75031725995826       -0.81116887718658        2.81396986979317
H            0.99549654199495       -0.50447516598510        2.91056927996459
H            1.32329840009267        0.39042371186188       -0.25475743439412
H            7.48907523205533        0.67972158795846       -0.76456339260724
H            7.23577122518954        1.94482690235711        0.43866856312513
H            7.10030559004433        2.33586282445990       -1.29174305560540
H           -0.01306032814862       -1.89905137418834       -2.93150016573525
H            0.83621498537097       -0.40785997000901       -2.46766237345717
H            1.00518035140590       -1.87339248585259       -1.46722106349653
H           -4.03847171779594       -0.15296932815616       -3.05126508560372
