33
 energy: -57.850690547995 gnorm: 0.000687606929 xtb: 6.5.1 (579679a)
C           -2.80002286261450        3.24957713211566        0.81120574076474
O           -1.78732296228338        2.25210637260027        0.58013680165854
C           -2.12201006789013        1.09304431273610        0.14874160465881
O           -3.37459014101769        0.86843245623289       -0.07193045278913
C           -1.07917714643419        0.11384810283159       -0.05574863245261
N            0.18759565839086        0.56343422689460        0.21711222517996
C            1.18546373856422       -0.24689629368494        0.08080043942398
C            2.60056484956731        0.22529100041295        0.36562453890133
C            2.55502020970600        1.41612484144631        1.32886878328202
C            3.24900545341217        0.62853225687381       -0.96655941951690
N            3.39268282354027       -0.83587424513951        0.96568434511282
N            1.00751899969319       -1.53216907192902       -0.33615820300399
C           -0.20000091417451       -2.11136458169497       -0.64437864890501
O           -0.26944371008562       -3.26883837726222       -1.00818373229632
C           -1.33331730385136       -1.18216204359694       -0.48031897399176
O           -2.58854191335147       -1.54493754075493       -0.71852924124994
C           -2.95554268255285       -2.87663102641463       -1.13435961498376
H           -2.28224334700681        4.11195676592464        1.22475864910834
H           -3.28296619895243        3.49843393849746       -0.13433830113524
H           -3.53803126345569        2.86029713400720        1.51320590312933
H            3.57142311682644        1.73576839444489        1.55412153530227
H            2.05956109396506        1.12733191720142        2.25472605323263
H            2.00601036658888        2.24283315165223        0.88033057447338
H            4.27520282227532        0.94575327006679       -0.78523427142758
H            3.25603233184403       -0.21828814582814       -1.65107733357109
H            2.69455099288425        1.44731136884344       -1.42288071697878
H            3.63868130475238       -1.53648853590920        0.28274712832502
H            2.88330328602515       -1.27756222714223        1.71728069370350
H            1.81190263635278       -2.13968220008091       -0.41869807425068
H           -3.57526000713489       -0.03771060832165       -0.39480759903037
H           -4.04030665999968       -2.85978265718197       -1.22036536920118
H           -2.64491536078728       -3.60389052675594       -0.38391470953373
H           -2.50082514279538       -3.10779756108459       -2.09786272193886
