42
 energy: -83.588845553392 gnorm: 0.000573407521 xtb: 6.5.1 (579679a)
C            6.99208583102484        0.95923397869937        0.79064143311291
O            5.83469172390030        0.15958336574756        0.95195812954378
C            4.79516061895561        0.44797637387338        0.10693957166662
O            4.91155698774035        1.36092864588699       -0.71328676354636
C            3.62705800754888       -0.38724849096775        0.26816915448169
N            2.60607236102281       -0.06078024209641       -0.61698854150195
C            1.50390741886096       -0.71543132480357       -0.60755499296973
C            0.39410384804609       -0.42668582447303       -1.60547924283118
C            0.58033175734604       -1.41011330362040       -2.77647596187413
C            0.51571320537701        1.02494758887702       -2.09838425301101
N           -0.87384626850486       -0.68538521643513       -0.91891691031608
C           -2.10337623593097       -0.28973054773147       -1.62797032428032
O           -2.16317820353187       -0.35267213040091       -2.90421693172438
C           -3.09439487400284        0.04928056068910       -0.75536053356383
N           -3.00817406656735        0.14126261126347        0.65432143904494
N           -4.21289805328434        0.57016602185871        1.01000943631471
C           -4.49487386672235        0.79051720078377        2.40819472607188
C           -5.04622304141536        0.75912280021261        0.01044090683475
C           -6.45780192761174        1.21436594289389        0.07651290335642
O           -4.44084380299768        0.44748394124144       -1.17140261916015
N            1.29346437502856       -1.76820544307344        0.25694487448389
C            2.20724689466881       -2.19283198878142        1.18683974843493
O            1.92565539295781       -3.14401101760736        1.92880685251073
C            3.50933592363405       -1.44603962543579        1.21405473840379
O            4.38446129958647       -1.79166195452882        2.04241942696873
H            7.39588153363397        0.86662407709317       -0.22359569655180
H            6.77060643578689        2.01507900443247        0.98160020649413
H            7.73134160896353        0.60702544243545        1.50990015826835
H            0.44133335255118       -2.43200774069064       -2.42314195934060
H           -0.14184340627352       -1.21134269115017       -3.56681816669142
H            1.58707390228055       -1.31088971918861       -3.18391940639299
H            1.51310539755233        1.19047102085305       -2.50699263961245
H           -0.22398423427092        1.22443063665993       -2.87264984082449
H            0.36032702744612        1.71660116613460       -1.26996023966454
H           -0.87061885178115       -0.20602675895240       -0.01849687559813
H           -4.68612239907491        1.84855823812336        2.58524785654786
H           -5.37119171569621        0.21527535879912        2.70387884816146
H           -3.62817732128469        0.47019369573902        2.98252674970241
H           -6.54044192795748        2.16129390911401        0.61255733998067
H           -7.08759124330524        0.48563373878778        0.59204205607788
H           -6.83607666295561        1.34748469152715       -0.93513195136155
H            0.40114219924836       -2.24247599179793        0.22707329436385
