46
 energy: -86.312962669585 gnorm: 0.000933836580 xtb: 6.5.1 (579679a)
C            6.87665777356433        0.21738151122110       -1.07464080741885
C            5.51464556819831        0.78733141459257       -1.15333707164551
N            5.09623409336409        1.75280573053045       -1.91260313655551
N            3.77336737587579        1.92215071808518       -1.64130160599312
C            3.46325900348589        1.05131807093968       -0.73172760352186
C            2.14647393773530        0.82046181470945       -0.10002662103491
O            1.13724516324466        1.42573213035281       -0.42357434195163
N            2.17328651773561       -0.15599598813154        0.83693810723515
C            0.99328380356524       -0.42868549712670        1.65238330766353
C            0.80567109742865        0.73844922361167        2.63347265365178
C            1.20805643703150       -1.72898291054978        2.43476643111557
C           -0.23944368335981       -0.55065785697147        0.76822065698675
N           -1.30927184282277        0.01806417608081        1.22445211701303
C           -2.49352871542788       -0.02023930543138        0.53497853144476
C           -3.56960052559941        0.62318845134615        1.25069790151124
O           -3.63444265057721        1.02787865276958        2.35820748131107
O           -4.83848848823457        0.71452591629961        0.43116450288192
C           -6.03170193037369        0.77532331506113        1.26386324940504
C           -4.81282844091498        1.73245743477780       -0.61375707790607
C           -2.56078941808204       -0.67740917304032       -0.67026295210887
O           -3.64391910221613       -0.77186931930281       -1.42612421723192
C           -1.36931000022820       -1.35135675483564       -1.18662851498062
O           -1.40223893715737       -1.95326222793987       -2.24964037720883
N           -0.24193907215022       -1.27010946561560       -0.40123150151442
C            0.90941889842345       -1.98150187753505       -0.96401760888339
O            4.52965298356838        0.30024414719165       -0.38070523253267
H            7.26003357323677        0.31114437876796       -0.05858568856857
H            6.84803248707695       -0.84295164286691       -1.32501178839541
H            7.53486495224214        0.73992303436105       -1.76517806443929
H            3.05349817751576       -0.54603859182145        1.12942297767590
H            0.58703709873115        1.65461240912020        2.08680950133831
H           -0.01839522593286        0.52534136497086        3.31146295627557
H            1.71962630851912        0.87113310198659        3.20884537853468
H            1.38895163204404       -2.57076346968250        1.77072959507868
H            2.06463439999823       -1.61545668377805        3.09689250117309
H            0.32376517373651       -1.93993142953031        3.03415566734580
H           -5.99397370413822       -0.08605802498450        1.92686093976478
H           -6.03931321039134        1.70822564085255        1.82759737213647
H           -6.88123463263768        0.71176059965438        0.58906660869767
H           -5.61806302967898        1.48707708472506       -1.30191819361398
H           -4.95582893305734        2.71475839522012       -0.16378801889953
H           -3.85006344620582        1.66393725476416       -1.11147728000751
H           -3.44376712005661       -1.32795633764888       -2.20928721958313
H            1.32317420898570       -1.39128750877730       -1.78217342531875
H            0.55221208229978       -2.93423134147868       -1.35398110098978
H            1.66505936163327       -2.15048156492588       -0.20862498792908
