42
 energy: -82.997777435511 gnorm: 0.000472603814 xtb: 6.5.1 (579679a)
C           -4.46851486068138       -2.07461623049071        1.60885889944534
O           -3.60414421903015       -1.23230420986686        0.83247971882078
C           -3.33041930160524       -0.03243404773952        1.34137037393895
O           -3.77777017397310        0.36501770339021        2.38700866019876
C           -2.46196136007206        0.80300608075197        0.44328868127361
C           -2.78306660757140        2.10266774500156        0.20329516805773
O           -3.84531305219751        2.70941435529986        0.74796553554830
C           -1.99211304284119        2.91103870550608       -0.73288838676814
O           -2.29912752075842        4.07869444805955       -0.94726800311606
N           -0.93804803800599        2.27278017220640       -1.32591637253590
C           -0.63025548180344        1.03618745232824       -1.05297390583424
C            0.56887624051814        0.49486639016166       -1.83430724136308
C            0.10964042340575       -0.62250836040219       -2.78246436615355
C            1.20465144973993        1.62929865683709       -2.65150885999414
N            1.57011879672948        0.01682420376231       -0.87137358846481
C            2.70246075866737       -0.62758872965304       -1.23896190078725
O            2.97582426290163       -0.99701563086057       -2.36684006974669
C            3.60179430589473       -0.87894380005011       -0.08565600244209
N            4.77680004490579       -1.42755729653056       -0.09891288959273
N            5.21739366624154       -1.44790083898783        1.18882016881646
C            4.28360143183980       -0.91117244526107        1.91283170383500
C            4.27440014879189       -0.71184833617486        3.38010349283850
O            3.23501093782717       -0.52763432267005        1.16741275404872
N           -1.34000385344086        0.26895945055820       -0.18823857004372
C           -0.96282392564058       -1.09909181876030        0.17237902787537
H           -4.50776352350836       -3.03243971528460        1.09529056685810
H           -4.06253550116797       -2.19625225628428        2.61509153381025
H           -5.46483649209311       -1.63098381696803        1.66723457839561
H           -3.87127660675376        3.62535922484373        0.40676316170998
H           -0.79006664856479       -0.29759165887491       -3.30350642249845
H           -0.10791351912284       -1.54046809721792       -2.24385070127419
H            0.88408493864060       -0.83085306151557       -3.51834573516290
H            0.48634642010694        2.01502522497585       -3.37250226327269
H            1.51415060374707        2.43796340659297       -1.99190526918199
H            2.07436747156435        1.24633542723129       -3.18279474781635
H            1.54572674550458        0.41827865676204        0.05156652805464
H            3.38828429888702       -0.15394164463855        3.67143358058985
H            4.27197768835770       -1.67773352498898        3.88575163727108
H            5.16684927290906       -0.16884495357086        3.68966308763505
H            0.08579379657390       -1.26783069495819       -0.04408283123364
H           -1.57399101440753       -1.80628147984975       -0.38649727663546
H           -1.12621096051762       -1.23788133266926        1.23873254490529
