13
 energy: -19.066735202379 gnorm: 0.000507633927 xtb: 6.5.1 (579679a)
C           -1.70137307070027       -0.34354748381073        0.19852090540347
O           -0.69810917615607        0.64785016660171       -0.16065600405845
B            0.78565072839465        0.50008886390879       -0.17389804960214
C            1.38018611226275       -0.89838361910746        0.11292980141049
O            1.45560303171369        1.60043919063919       -0.44475362628094
H           -2.53893118660646       -0.23533216216681       -0.48756743544715
H           -2.00985296883634       -0.17253879228118        1.22959495944398
H           -1.24283925496659       -1.32282490794491        0.08884616412193
H           -1.07472572799365        1.52766329259227       -0.29817306000293
H            2.46832679759707       -0.86866158825000        0.09171461405219
H            1.06391650017477       -1.26630656905278        1.08822537109464
H            1.04369489575412       -1.62484149158923       -0.62665822194459
H            1.06845331936232        2.45639410046108       -0.61812541819046
