42
 energy: -82.971622923856 gnorm: 0.000579842977 xtb: 6.5.1 (579679a)
C            6.51553486600011       -0.39084594530789        2.11628553031243
O            5.39321944486738        0.37833750470017        1.70105013414880
C            4.41956348998263       -0.30005086806817        1.05290402590979
O            4.52278826439284       -1.50145036702862        0.84174850691186
C            3.27636648840967        0.51220143407735        0.64921045487927
N            2.30253982047330       -0.22637218706333        0.00940293041873
C            1.22702710055296        0.32755153935510       -0.40543845332398
C            0.18579204052340       -0.48525145413684       -1.14342707955361
C            0.49560723279932       -1.97623687972267       -1.00130579296562
C            0.13675197249927       -0.04824377217704       -2.61268014468407
N           -1.12284460806015       -0.19597695757192       -0.50195639940081
C           -2.28943719715998       -0.66117452543551       -0.86972812953206
O           -2.36498788998608       -1.47355199220797       -1.88468462016918
C           -3.60711696353725       -2.01292749025687       -2.36027219821575
C           -3.44282040436444       -0.23861015127947       -0.11276957157549
N           -4.70261709853618       -0.55059714749908       -0.26075496829817
N           -5.38442087427831        0.10596079739404        0.69660718483825
C           -4.51290458016093        0.79005870004280        1.38748783416938
C           -4.76681866006573        1.67088952918082        2.54309025035712
O           -3.27023974634034        0.61053217575777        0.92289007435037
N            0.98712385510468        1.67975222739357       -0.25035379551472
C            1.86936685445993        2.53785802186823        0.36849307837356
O            1.58545582133352        3.72426085244917        0.47483553992334
C            3.15248562544813        1.91036289502364        0.87424625328074
O            3.98572314810065        2.64031818663061        1.43355917847907
H            6.20752729587451       -1.17465719584240        2.81499345372649
H            7.00360639176822       -0.85717086557624        1.25497828782424
H            7.20602331813109        0.29291736374195        2.60854517645294
H            0.44198224464260       -2.26671920752968        0.04677005064403
H            1.50691398588795       -2.15696024943818       -1.36454452871636
H           -0.20536549205145       -2.57368088072485       -1.57754552983006
H           -0.53472972953061       -0.68082902704661       -3.18698766257543
H            1.13834909972758       -0.12552683565060       -3.03400975450238
H           -0.20096433039427        0.98360781802034       -2.68402099961956
H           -1.12242867616878        0.41900517783813        0.30266052817233
H           -3.34600292042403       -2.63349998804062       -3.21533770104508
H           -4.07939298991081       -2.61030966709316       -1.57910721353007
H           -4.27485073448975       -1.20390964808964       -2.65948740633698
H           -4.20937073878457        1.31357661424239        3.41012033534889
H           -4.42449454817537        2.68205565592466        2.31890029572425
H           -5.83091637817207        1.68340925517562        2.76812544701175
H            0.13297719962069        2.08189555396442       -0.59252160186362
