42
 energy: -83.614011706490 gnorm: 0.000727657244 xtb: 6.5.1 (579679a)
C           -5.26814737216172        0.66994242852340        2.20882948228883
O           -4.05280674551550        0.40089622923405        1.54845843493334
C           -4.09162117877823        0.56778001975152        0.13813144994823
O           -5.18113203207002        0.91005647383364       -0.36697081818027
C           -2.87647557520263        0.27755071273165       -0.48687380384258
N           -1.82032307717155       -0.06391541446701        0.33038009670351
C           -0.73775944713016       -0.55245807951004       -0.15133210622158
C            0.45440485440087       -0.85229630400176        0.73304695521214
C            0.27119297837496       -0.15869693842726        2.08727599857894
C            0.62917775574497       -2.36794600021590        0.92629011893429
N            1.64234906436058       -0.31303337891179        0.04801831660619
C            2.88995539099203       -0.33612313356276        0.54591029359344
O            3.22365647134831       -0.80785788289749        1.62863460770358
C            3.84385417169743        0.31530604227192       -0.38366893240211
N            3.53955073802030        0.89841040474994       -1.50925790209417
N            4.70603668651478        1.37856222315336       -2.03196779742197
C            5.64420671531932        1.06030818160426       -1.19757979453295
C            7.09097153831847        1.35034864821844       -1.31328371348124
O            5.17067615314572        0.38969882643834       -0.13367433532685
N           -0.60424861837195       -0.89697642428367       -1.51642011798963
C           -1.65304389061009       -0.69669584633142       -2.37929039755923
O           -1.72920520540421       -1.37676435186676       -3.40864783263142
C           -2.57318299061360        0.51086263315733       -2.00109407342832
C           -3.87091033112356        0.36014931424752       -2.85848688020264
O           -1.89967550547831        1.64290340911923       -2.26178521346352
H           -5.10783771146849        0.49637386426920        3.27486290546919
H           -5.58884070005292        1.71017319306759        2.06144230235490
H           -6.07357358227419        0.01070869824040        1.85821795590759
H           -0.67274807486082       -0.48351915786346        2.52475401217168
H            1.08318845004681       -0.40936777319939        2.76627741953909
H            0.23781506277570        0.92252597559709        1.95327138726338
H           -0.28058732805203       -2.78460579861812        1.35638825506236
H            1.46305473979556       -2.57594521462716        1.59457948140419
H            0.82062176729404       -2.84973655326464       -0.03097208653045
H            1.51538607879780        0.05586007796888       -0.88760935874331
H            7.27206448779768        1.96065070055495       -2.19458276222559
H            7.44026977273852        1.87643727459236       -0.42554945967658
H            7.65332964815213        0.42034445386116       -1.39602488506949
H            0.01261712780414       -1.65991647575815       -1.74080064390475
H           -4.43275834498701       -0.53331650678898       -2.58519375068896
H           -3.58921390632615        0.29474254417100       -3.91111264321472
H           -4.50028603579717        1.23857990523739       -2.72535816482758
