16
 energy: -34.127641986095 gnorm: 0.000564161888 xtb: 6.5.1 (579679a)
C           -3.51635998442514       -0.11503539473345        0.21640475398596
O           -2.32580865121447       -0.88314575095142        0.27261150816745
C           -1.26350995437045       -0.33071268838242       -0.44780470378436
Cl          -1.28856808978070       -0.82238929755233       -2.19350830479105
C           -0.01804948112979       -0.28725625010084        0.16307603391404
N            0.23067432017026       -0.19606505261880        1.47747694378544
N            1.57708117617715        0.10212175818753        1.59317998543210
C            2.06256680840772        0.17663577783026        0.40623894922802
C            3.46377525513370        0.48383555222572        0.01466030389055
O            1.12806846287346       -0.05277603176036       -0.56599650909114
H           -4.25667522651227       -0.60856684644837        0.84858565051361
H           -3.89999002822362       -0.06137974215588       -0.81011207747880
H           -3.34780959005699        0.90626949968117        0.58130677216998
H            3.50991792461502        1.42124360019384       -0.54177412250797
H            3.86678181779593       -0.30461485105354       -0.62184364701041
H            4.07790624054029        0.57183771763886        0.90838046357645
