43
 energy: -83.152424202729 gnorm: 0.000955559308 xtb: 6.5.1 (579679a)
C           -4.32757622080461        0.27925793579744        2.76910313930732
O           -3.50344285556542        0.20249388264145        1.59835025749109
C           -4.12045819826289        0.37195359457412        0.42897606264848
O           -5.30500431160751        0.57474278235125        0.32110114811389
C           -3.16422560541033        0.28406641145080       -0.71442495647241
N           -1.85557830158285        0.01462596800035       -0.38154932732301
C           -0.95054589195681       -0.05639790845887       -1.29579809676172
C            0.45829395505550       -0.41859250487761       -0.86276643167829
C            1.52647733248706        0.39234042757930       -1.58459845750713
C            0.66237629019297       -1.92120952599402       -1.08443735928053
N            0.44210518086775       -0.14584585202949        0.63285600979144
C            0.68911351753512        1.26177768702230        1.02937917239270
C            1.18996603719060       -1.14017244665387        1.47770883193125
O            0.54272437499175       -1.99799815520818        1.99700509199072
C            2.61450913754286       -0.96651749969898        1.61491069011373
N            3.39046675555431       -1.72915997602381        2.34453825948190
N            4.63518105930437       -1.25763964994723        2.22325704058703
C            4.58105684028138       -0.22387575327475        1.42243030560767
C            5.69153385832352        0.63458565850992        0.97567785725236
O            3.33155508196086        0.00429192330227        1.00863659273435
N           -1.22300451333337        0.10284443925260       -2.61556148926448
C           -2.49828437846443        0.36753988769524       -3.07967815903458
O           -2.74659892010780        0.51355892491756       -4.26114377452905
C           -3.51341836777444        0.45528616791044       -2.02609420866050
O           -4.75192852529690        0.71246657485962       -2.43800645935481
H           -5.12806606993860       -0.46280010669540        2.71342899368518
H           -3.67769314996914        0.07589044865862        3.61737059769314
H           -4.76037759440403        1.27898732461168        2.85291560865803
H            2.50079150042251        0.22364503430964       -1.13397460005978
H            1.29837437582434        1.45562428758101       -1.56858323925944
H            1.57305173013688        0.06246445387637       -2.62117225944649
H            1.66780505700064       -2.21407313309557       -0.78687526842095
H            0.53461472130582       -2.13649230527646       -2.14386791884533
H           -0.06905265861688       -2.49457847614275       -0.51649681123033
H           -0.56806846364347       -0.31552258199245        0.86238574092093
H           -0.05426975856167        1.87038789760826        0.52119787263552
H            1.69023049073940        1.56537953786683        0.75011062653094
H            0.55851545365575        1.32658545104423        2.10684185450052
H            5.43785562495531        1.68126800016458        1.14071877436520
H            5.85314912579083        0.49737803087361       -0.09464954153368
H            6.59992505960133        0.37867258198927        1.51696395057570
H           -0.49173619183314        0.04850117279843       -3.30760217103356
H           -4.76034058357486        0.80399338810499       -3.40858394929603
