42
 energy: -82.946110677710 gnorm: 0.000300931175 xtb: 6.5.1 (579679a)
C            6.08188142326123       -1.25159037557179       -0.13442415849274
O            4.75449294965887       -0.78894895466838        0.10998750131659
C            4.42545192851150       -0.59527797605134        1.40268347539223
O            5.21150874972870       -0.80092673460410        2.30307009053606
C            3.03529541351983       -0.12081365100310        1.55580545830604
N            2.33799155733297        0.03852795079551        0.40115049487165
C            1.12021832698899        0.47503866736339        0.41863354951626
C            0.36407908155917        0.67096887530533       -0.87291200322528
C            0.11293523997759        2.16585829784481       -1.10976011938799
C            1.13361065850571        0.03875272238105       -2.03346400055573
N           -0.93632189896479       -0.01793181905717       -0.70088702001633
C           -1.86841818224983       -0.04849724218746       -1.64304707069930
O           -1.83418726567207        0.44484590544914       -2.74355370224605
C           -3.17125307716831       -0.84672704731826       -1.17916007316714
C           -3.88455928103268       -1.38892298847730       -2.41227630880265
N           -2.81986429679091       -1.84498911619897       -0.23409602041779
N           -3.33321161981953       -1.53425544589940        0.91405067714552
C           -4.03247216832899       -0.40211612689201        0.76853332259203
C           -4.79720873896543        0.27950443914759        1.82120443756258
O           -3.98461471056022        0.05865047522788       -0.45500365073464
N            0.47708591901104        0.78639866747446        1.58394127852722
C            1.04238242103988        0.65166140510929        2.83894514099791
O            0.39553916501582        0.93490756535872        3.83058572967858
C            2.47110402339872        0.14671674887017        2.84861828862953
O            3.04943060204321        0.00036634598433        3.92573884124057
H            6.81166529155098       -0.52397052434258        0.23148845573509
H            6.24873778478128       -2.20972484101602        0.36574015327391
H            6.17945372231034       -1.36963806207498       -1.21190178185867
H           -0.39868354754529        2.31511795311600       -2.05843049324485
H           -0.50063831655808        2.57311529105871       -0.30863218444109
H            1.06537131003865        2.69313927695457       -1.13344760893026
H            2.11721114502768        0.50096579462679       -2.10180938318347
H            1.25787718749495       -1.02911909367001       -1.85985092575613
H            0.59987173478522        0.19289138423572       -2.96853125761120
H           -1.10420094803242       -0.51861247527678        0.15883104823283
H           -4.05616256267364       -0.57032830125062       -3.10839825380166
H           -4.83331664072154       -1.82762527026135       -2.11379096235467
H           -3.25729928361672       -2.14369618585136       -2.88049277435570
H           -5.85665613422538        0.04044418060905        1.70119510277497
H           -4.69108058977978        1.35896735258034        1.72406033643709
H           -4.47028266184259       -0.05531577226185        2.80286728669453
H           -0.46276471099455        1.14565770444225        1.55673708383416
