16
 energy: -33.418884335537 gnorm: 0.000433313246 xtb: 6.5.1 (579679a)
C            3.28877840933237       -0.13274584603945        0.70354129508745
O            1.87980565212489       -0.02707565690838        0.45425222197463
C            1.34153203335006       -0.22321235966407       -0.68771514705656
Cl           2.23253063880431       -0.62759259739382       -2.03153966908690
C           -0.06997892751863       -0.08291633235473       -0.78098045751738
N           -0.82474974851252       -0.24125079879717       -1.85166778366141
N           -2.07587673082800       -0.01779034735871       -1.48516928399723
C           -2.06053042518200        0.27321713405787       -0.19459534207844
C           -3.21314544771066        0.59138811054355        0.66282579455433
O           -0.82847199387287        0.24487459458302        0.28746640049255
H            3.42035289256593        0.11762926268990        1.75388749291256
H            3.61559641300311       -1.15260127040183        0.49726303238122
H            3.82426604711668        0.56640317592884        0.06051515642155
H           -3.82962471674677       -0.30064232038721        0.78947186481284
H           -3.82814705215958        1.35481371302504        0.18613151298031
H           -2.87233904376632        0.93506453847712        1.63631391178052
