46
 energy: -87.046009435468 gnorm: 0.000967482817 xtb: 6.5.1 (579679a)
C           -5.10530366508613        2.26754082331885       -1.20636354390467
O           -4.11460736595095        1.42265170238000       -1.72973224213661
C           -4.05844536966261        0.00623830348806       -1.13532738782609
C           -3.56882645851790       -0.81851865557790       -2.37061115379662
O           -5.15159572160701       -0.40459366540834       -0.60244083900183
C           -2.85210929902460        0.10691816564557       -0.10538516760155
N           -1.70573127386320       -0.57096484672475       -0.41647950334065
C           -0.68014081000949       -0.60815088986882        0.37067159065672
C            0.51917727815868       -1.42047617028667       -0.11237670960370
C            0.26584404707353       -1.90229423199711       -1.54812175044648
C            0.75411919997558       -2.63335121746359        0.79925395037775
N            1.68906269806956       -0.52788087727574       -0.13761072797984
C            2.94964793787688       -0.95046282250254       -0.37281758461307
O            3.31936031167381       -2.10922312524313       -0.42876892356137
C            3.86486368831004        0.21024622205226       -0.54015237887720
N            3.51269504089399        1.46035401137702       -0.58104596868247
N            4.65038672051939        2.18427116868518       -0.77018975879248
C            5.62630836023332        1.32848744655586       -0.83366586193810
C            7.06782993000300        1.61361463921856       -1.01675862813598
O            5.19351669848903        0.06755089440746       -0.69790982336483
N           -0.67758254041355        0.02976190198526        1.58499256520576
C            0.42641854903358        0.00532598718496        2.54071370737475
C           -1.79761699555955        0.73398510108250        2.01160937137926
O           -1.82030216624736        1.30183837384789        3.11070516189928
C           -2.91001406341266        0.75722288568671        1.09541929095469
O           -3.98494181891121        1.46855178705014        1.53019757832820
H           -5.59059509966404        2.81307132292462       -2.02738323486386
H           -4.67754115025177        3.00658594070560       -0.51100665870887
H           -5.88101125846803        1.69978707122480       -0.66824878481038
H           -4.37560355184517       -0.83556974970900       -3.10179729133675
H           -3.34878252204637       -1.83747157374144       -2.05668337929045
H           -2.68189405458934       -0.37383933601703       -2.81821588742035
H           -0.60177843929999       -2.55951421821406       -1.56882772661612
H            0.08215873295753       -1.05244677063017       -2.20387855377813
H            1.13647156246557       -2.44820546609650       -1.90674811559772
H           -0.20437585762018       -3.09512117894617        1.03406112911174
H            1.38021138420879       -3.36732799001669        0.29583804999882
H            1.24493380263743       -2.34698174612142        1.72519981792610
H            1.51198162356560        0.46042005237148       -0.25373893848244
H            7.21053127651508        2.29117332688881       -1.85721496602794
H            7.60904107122167        0.68785507136310       -1.19573783098690
H            7.46761601942019        2.09252093581180       -0.12257287310604
H            0.41993471664423        0.94852526444680        3.08777143148857
H            1.37661492859731       -0.10780849251472        2.03043041171081
H            0.28229139404114       -0.81203781023559        3.24796660798170
H           -3.77221449053546        1.81773743488559        2.41161053023384
