16
 energy: -34.130496617760 gnorm: 0.000927471124 xtb: 6.5.1 (579679a)
C           -2.67037986536400        0.43220437029634       -0.12575395543038
O           -2.26406049198801       -0.05524356511162        1.15383832536367
C           -1.35911060578419       -1.09165820027145        1.18962561617941
Cl          -2.13225983768778       -2.69823809923703        0.75043726258049
C           -0.08714206060573       -0.93997413317509        0.61403071128631
N            0.81648439223791       -1.88526690849313        0.36186877845466
N            2.00989651084969       -1.22849433809240        0.11268783218807
C            1.78647201792932        0.03134366794391        0.22993470341894
C            2.75782878224007        1.14404677748148        0.06057109741339
O            0.48972075034774        0.31186371158366        0.54725650891129
H           -3.11950978282383       -0.36819122881180       -0.72657625713867
H           -3.41511210056233        1.21136542597689        0.04620390291557
H           -1.82204731100622        0.85883165874236       -0.67499976022080
H            2.41352406663732        1.83790254915623       -0.70648491584368
H            2.87178699225247        1.70083914600505        0.99135840493222
H            3.72390954332696        0.73866816600723       -0.23211825501031
