42
 energy: -82.976948629001 gnorm: 0.000416131486 xtb: 6.5.1 (579679a)
C           -5.39890395107766       -2.58734264436624        1.52437257003671
O           -4.24678788097813       -1.89411220592444        1.04333404668055
C           -4.14448288133302       -0.59931175709526        1.39848065763551
O           -4.97991030131793       -0.03718791953483        2.07773943613502
C           -2.93548230598524        0.01897344911649        0.87555220124320
C           -2.54248124904377        1.32861400471243        1.08718362936463
O           -2.90753983326233        2.33981312416858        1.61215389838731
C           -1.13476826162557        2.46065941398770       -0.71599283274599
C           -2.30411518130505        2.42480086472724       -1.62847317336078
O           -0.26527450619499        3.27280553024057       -0.68006217739776
N           -1.11559583725333        1.38643710921507        0.29647450491417
C           -1.01395116212613       -0.00337102946453       -0.21161938968313
C            0.18799096512042       -0.47534413722804       -0.97999589352566
C            0.24993076549851        0.18802800468949       -2.36277315837873
C            0.10322247325368       -2.00140227427048       -1.11320343396271
N            1.37689050578617       -0.11076222392663       -0.19724879702021
C            2.64031646243292       -0.38758435625089       -0.60064821765459
O            2.95824591570343       -0.83061000368945       -1.68757401233068
C            3.61084722699708       -0.05886110330777        0.47342508841050
N            3.31419731403547        0.37103106694404        1.66344308109221
N            4.49124487394644        0.52985230393067        2.32849372442193
C            5.43268169100893        0.18493148245096        1.50195729731076
C            6.89125416479854        0.17960246278253        1.74812513183226
O            4.93915671534456       -0.19735800774011        0.31507952203310
N           -2.01534150895474       -0.70380906161750        0.12461942398251
H           -5.40439073851873       -2.60103978310522        2.61774167264079
H           -5.33532005972231       -3.60275961919087        1.13726498781022
H           -6.31141179429730       -2.10368554581336        1.16562856330863
H           -2.06184132262488        2.94486154414662       -2.55227852876047
H           -3.11913525335703        2.95849985215887       -1.13396503751345
H           -2.62883951874515        1.40750534484660       -1.82975633837145
H           -0.38208362417471        1.60879057355538        0.96667637747708
H            1.05162471281185       -0.25314637918511       -2.95196081405215
H           -0.69425924178295        0.03163768066400       -2.88114748775376
H            0.43402617123663        1.25547348428692       -2.26317854582775
H            0.08473009496314       -2.46089149325248       -0.12646873560391
H           -0.80851104461894       -2.26759316494626       -1.64526530237057
H            0.96376371597778       -2.37116706846222       -1.66709501375903
H            1.24928947140815        0.13014741634393        0.77357372434751
H            7.09567773912996        0.57235935718105        2.74108534419444
H            7.39745934636945        0.78932187074738        1.00026024964248
H            7.27787913248340       -0.83680716252950        1.67255575716727
