42
 energy: -83.588565929061 gnorm: 0.000173442130 xtb: 6.5.1 (579679a)
C           -5.67733180586680       -1.71231911727165       -1.40623127102946
O           -4.34733361121052       -1.34407535648988       -1.08295694249249
C           -4.15704480906272       -0.85011209803024        0.17516554052028
O           -5.12157918088618       -0.75110514916483        0.94436206648394
C           -2.79106380260147       -0.48759296459784        0.48007962943736
C           -2.44811365060467        0.01580985813461        1.71016108233851
O           -3.36292863889782        0.23861484558608        2.68917717074218
C           -0.95804992500517        0.23737598325374        2.13758958011184
C           -0.86887198778054        1.71408305071722        2.69998824710934
O           -0.56391244978733       -0.67840872293091        2.99691040584152
N           -0.12386964695873        0.27355639317902        0.87295082213390
C           -0.61714810307216       -0.20171733280005       -0.22722333114183
C            0.34402522371876       -0.25811496722482       -1.43454838659024
C           -0.08703960416914        0.80088691514841       -2.45944002070532
C            0.31116309617888       -1.65762363545445       -2.06183123061563
N            1.68286187230818        0.04092787370237       -0.93004531251736
C            2.79155900455037        0.07130657885723       -1.66522518682007
O            2.85543881653645       -0.13650512843791       -2.88067842147220
C            4.02672586827159        0.36592275553187       -0.89133382007372
N            5.24289298642867        0.42186785004909       -1.36017877578676
N            6.06356655112344        0.67986224210295       -0.29800049242909
C            5.30363022267815        0.76351815188796        0.74836314608203
C            5.72460545763281        1.03588928489211        2.14173301343334
O            4.00671508409811        0.57617819905307        0.44772689490629
N           -1.84531600011556       -0.63180662908784       -0.53738121955482
H           -5.66798619844497       -2.09055150497710       -2.42812845504233
H           -6.04286367865003       -2.49159907765408       -0.72914660164447
H           -6.34808578613353       -0.84942660091088       -1.33990749216186
H           -4.25674213210166       -0.02051310805551        2.37759056666476
H           -1.20896458836109        2.43450346864621        1.95554258014693
H            0.16824284302480        1.92484642008364        2.95803949839857
H           -1.48230594517547        1.79743946413034        3.59694954726796
H            0.51560535791612        0.74487398220557       -3.36584383860062
H            0.01222766613934        1.79860007896822       -2.03116596404317
H           -1.13328712062421        0.63142952400168       -2.71606158478944
H           -0.72655441866044       -1.91776936366493       -2.27460554823230
H            0.88313365650171       -1.69047942453685       -2.98879351272968
H            0.72129675469012       -2.39239172035963       -1.36792461530580
H            1.69671294327838        0.27358691367704        0.06968990132506
H            6.80925597047642        1.00822211652447        2.20273533898147
H            5.37541817869017        2.01983414480687        2.45516958279318
H            5.30131452993132        0.29297380650292        2.81672740904722
