42
 energy: -83.002935067077 gnorm: 0.000830722067 xtb: 6.5.1 (579679a)
C           -2.96027368755005        2.26352642294756        2.45549047083350
O           -2.76004113571160        1.25979589539504        1.44481264536939
C           -2.81856734285149        1.65881934105785        0.18961374580973
O           -3.05017999634160        2.77821421661339       -0.17549924309151
C           -2.56073299659733        0.48019580287962       -0.79384044031220
C           -2.54789894207137        1.01745915584415       -2.22554679366072
N           -1.25696876075668       -0.04675750909585       -0.45649372115451
C           -1.12532701145683       -1.04977069403584        0.30758129787324
C            0.25829801157019       -1.54667133077356        0.68040223947743
C            0.45317212444997       -1.45729445611209        2.20067740753377
C            0.44872885741019       -2.98409350264477        0.17573402288947
N            1.20750800448057       -0.66262084482548        0.01346272073477
C            2.54508332007732       -0.79137274702901        0.09621711033079
O            3.13995474024476       -1.64392799698391        0.73302966255838
C            3.22719310044122        0.25804420771378       -0.70548633872149
N            2.64900863314432        1.17012263113182       -1.42762627297148
N            3.64250067387061        1.91456306523410       -1.98941910351024
C            4.76402183988565        1.40850321112361       -1.57359160820057
C            6.13532517570662        1.86205453936423       -1.89441582452779
O            4.56738685972086        0.36012770796572       -0.76068775624312
N           -2.19091253628585       -1.75540048939167        0.84717016305999
C           -3.49606272273155       -1.55757709794065        0.50397810282212
O           -4.40033889571682       -2.19670323969454        0.98957384038740
C           -3.70738962912867       -0.48617672738328       -0.57207451669907
O           -4.74445505919571       -0.40967414395947       -1.17701775173681
H           -2.19985316982814        3.04009507648037        2.35792111936136
H           -2.86744280072177        1.75638933524838        3.41253706846031
H           -3.95307318921849        2.70396728309232        2.34697702895739
H           -1.78554040023847        1.78803930604939       -2.31614078751024
H           -2.32689515237963        0.20783418883229       -2.91747564917245
H           -3.52162970039096        1.44228478452836       -2.46393634012883
H            0.29497452034157       -0.43348647366879        2.53587792801380
H            1.46488424936658       -1.76711356134952        2.45708957540217
H           -0.25083210516268       -2.11246571807113        2.70888164389102
H           -0.29935429737063       -3.63694746827275        0.61988367772478
H            1.43802952624982       -3.34185537341244        0.45544297465218
H            0.35019457276248       -3.01353703389704       -0.90828408490514
H            0.81345778664600        0.08951660561461       -0.54156025154088
H            6.72263470293142        1.02785557445950       -2.27803447598394
H            6.09442132868115        2.65438397204262       -2.63808107813487
H            6.62483941302614        2.23293063091313       -0.99336318800695
H           -2.01784490930996       -2.48127654599380        1.52564678007858
