21
 energy: -30.770432359280 gnorm: 0.000411969964 xtb: 6.5.1 (579679a)
C           -2.15536797226423       -1.03058807169643        1.10967994206468
C           -1.22324201915154        0.16910620155145        0.78740719983852
C            0.18062174091330       -0.22332273264421        0.57955667700458
C            0.92178215639223        0.20570321986428       -0.48865749377983
C            2.37256053190217       -0.20004028342506       -0.69232568292537
N            2.93393814862411       -0.97075452374103        0.39388023074743
C            0.31273790474277        1.04600023786708       -1.44715005297350
C           -1.00742802920980        1.47409456996961       -1.33592906816378
C           -1.75033683535712        1.03597851005503       -0.27012082139808
F           -2.99956983984215        1.39790889546262       -0.15290617746952
H           -1.77035597863901       -1.55885677442286        1.97835974514235
H           -3.15719893854497       -0.66156807442036        1.31870149448054
H           -2.18192465347646       -1.70363812061630        0.25600614999562
H           -1.23479690477930        0.77649823514536        1.71168112336359
H            0.61107721988469       -0.87714984388214        1.32849644192490
H            2.96641978730039        0.70863028635158       -0.83043897136693
H            2.43860302380771       -0.78450449892680       -1.61547316045870
H            2.43098269844822       -1.83961406487002        0.50237227342543
H            2.86958653274517       -0.45148814990398        1.25746391245322
H            0.89282789629381        1.36829267196988       -2.30583129920280
H           -1.45091646978983        2.11931031031229       -2.08477146270222
