42
 energy: -82.941047586645 gnorm: 0.000875803481 xtb: 6.5.1 (579679a)
C            6.82208104329802        1.66368085030625        0.70785765601353
O            5.53398163226193        1.73440520962726        0.09544761557492
C            4.70201011516384        0.72389707470761        0.35096654849811
O            5.00581014696667       -0.21311704909512        1.06145386932760
C            3.37778120540362        0.84749627628426       -0.31097403874697
N            2.55077560697070       -0.18430269606111       -0.03993209855092
C            1.35021124234017       -0.23472554804462       -0.53807146554193
C            0.49337277968561       -1.44748587203789       -0.26582618600273
C            0.95344828425180       -2.14569515107062        1.01816952901189
C            0.61993538332633       -2.38003900185780       -1.48391656013857
N           -0.89912121030548       -1.00904770383444       -0.11598088125004
C           -1.92167072861301       -1.87637931739083        0.04587110145425
O           -1.84122066686890       -3.09229807992434        0.03136743846988
C           -3.22424059800205       -1.19184133126003        0.24405800573422
N           -4.39295711753565       -1.81926361326917        0.45169982209304
N           -5.31237782757840       -0.93618916264740        0.58481592858455
C           -4.73442504579776        0.37477716617487        0.46097176158268
C           -5.32283905969914        1.10294782246377       -0.74985131380145
C           -4.91390465854373        1.16260045908393        1.76050397885611
O           -3.34351540028619        0.11553935118133        0.23896965347863
N            0.87714320318222        0.72761026860407       -1.37322530596762
C            1.59886457962583        1.85210662884043       -1.74520878027544
O            1.10434764757766        2.67251284067099       -2.49170532882862
C            2.99636476520271        1.94338644375377       -1.16430786954753
O            3.70198091555679        2.90803603227314       -1.44961308126439
H            7.35628819353293        0.77543755833137        0.36102051063402
H            7.35849250518343        2.56438887167051        0.41536710525549
H            6.72078855740682        1.61945205499476        1.79510156382942
H            2.00745834635526       -2.40422781610303        0.92820671739344
H            0.82283396911656       -1.47897551164115        1.86855905146245
H            0.37160845799030       -3.05095723994955        1.17796085965416
H            1.67230373989821       -2.59485438051111       -1.66061287444050
H            0.09311763829566       -3.31375786075335       -1.30208069858083
H            0.20024095422526       -1.89709052020543       -2.36355190975465
H           -1.08411449976280       -0.02907384501878        0.01896370361771
H           -5.16579013991200        0.50210887186397       -1.64299021282145
H           -6.38791725989745        1.25282005620069       -0.59158741701796
H           -4.82824989441157        2.06407625449178       -0.86422623404354
H           -4.46104212195476        0.61176690511295        2.58209956017284
H           -4.43226039564050        2.13210876402824        1.66147801830183
H           -5.97609187642615        1.29634885895143        1.95043456408511
H           -0.04950441158587        0.65181408106267       -1.76037230650996
