20
 energy: -38.355925617326 gnorm: 0.000263416109 xtb: 6.5.1 (579679a)
C            3.74584664944162        0.68462401484598        0.62167853330655
O            2.34807409297720        0.56256293931262        0.43029148968896
C            1.94921233828597       -0.54337860948738       -0.30718505315552
O            2.79225725349717       -1.34060575175984       -0.74946832110271
C            0.55811927444372       -0.63507039280077       -0.47685665685249
N           -0.08180355268401       -1.59403618959125       -1.14358837975802
N           -1.35967800223342       -1.40258764730972       -1.12599661615973
C           -1.62036460233993       -0.17121592578184       -0.36098816593521
C           -2.49181638451836       -0.49725697264958        0.86251450947364
C           -2.30955115756464        0.86311925794656       -1.26566585284822
O           -0.34808406833818        0.30434707154521        0.05145947873155
H            3.91062091548887        1.57535161209804        1.22844750016593
H            4.26757663035361        0.79423493314548       -0.33624152153146
H            4.15090786443948       -0.19122188707440        1.14203681595580
H           -2.67398332525159        0.40348323143671        1.44574895484650
H           -1.97903602456161       -1.22725382130728        1.48690867625834
H           -3.44249188414810       -0.91350501514295        0.53575905082236
H           -2.49690215315069        1.78160308522675       -0.71244015674797
H           -1.66567248131963        1.08499304644972       -2.11538102081738
H           -3.25322838281716        0.46181402089853       -1.62915726434049
