42
 energy: -82.971134143509 gnorm: 0.000881784793 xtb: 6.5.1 (579679a)
C           -4.65992111034545        3.43428510192293        0.39787607991977
O           -4.45762614877785        2.01993075552122        0.48131856119819
C           -3.18517519032538        1.59959399791666        0.33178955673601
O           -2.27209766701233        2.37803652404816        0.14818766189547
C           -3.02347504335003        0.13319316684449        0.40585763335421
N           -1.72060639381861       -0.26681213513339        0.23470457498533
C           -1.47927805444727       -1.55730646646070        0.26790892711892
C           -0.02744993219054       -1.97339511249315        0.04944459534855
C            0.09635166290475       -2.72677215097821       -1.27882319207360
C            0.46229609358291       -2.82460414540179        1.22303699101952
N            0.71931876823271       -0.71218285554804       -0.02178723154051
C            1.99405995675857       -0.52909729108327       -0.16911010983930
O            2.77752509531931       -1.56806525043089       -0.27240336309280
C            4.19996270270107       -1.47198784227269       -0.42644108832781
C            2.43880139748189        0.84964423106880       -0.20537305989879
N            1.64686548033794        1.87952583212409       -0.10247585082832
N            2.42179616651591        2.97960383100170       -0.18480758725822
C            3.64919804989592        2.57023538244962       -0.33437449296474
C            4.86833901711395        3.38957595809780       -0.47210236877478
O            3.72219680465683        1.23100986380283       -0.35491229808991
N           -2.33847221820803       -2.54186904027469        0.45462707217625
C           -3.65909459973315       -2.24271720273887        0.64849801928511
O           -4.51095451844562       -3.11789636415017        0.83826857564806
C           -4.00573781769480       -0.80494826752425        0.61185626483887
O           -5.31621071069005       -0.52970755087466        0.78858144234031
H           -5.72377884605527        3.61067306230163        0.53944890156966
H           -4.08530206798978        3.94239434471586        1.17613534635538
H           -4.34307938512510        3.79996082905440       -0.58198250840252
H            1.11336082379746       -3.08017808056353       -1.43127823196551
H           -0.58136052378670       -3.57975162511938       -1.25269219685892
H           -0.18240571870850       -2.07474509867195       -2.10520704315430
H           -0.23593354834147       -3.65148050941958        1.35509799258597
H            0.48614711841885       -2.23009398229148        2.13470261420801
H            1.45584582423160       -3.22207701857212        1.03107623184849
H            0.08152597931702        0.10519408890720        0.04837149529127
H            4.55671417143886       -2.49941316975490       -0.46946979297929
H            4.44393298893521       -0.94629264821358       -1.34995304092247
H            4.63777061226608       -0.95403678214385        0.42716223425133
H            5.57632558722132        3.13337471051337        0.31576413861850
H            5.34605549054987        3.18295119937703       -1.42982202980020
H            4.61284036100806        4.44462026851992       -0.40931896936286
H           -5.49927065764133        0.42162744192612        0.74786454553929
