43
 energy: -83.149699006130 gnorm: 0.000942890434 xtb: 6.5.1 (579679a)
C           -3.37882036012763        1.84036509691242       -3.03806184834463
O           -2.65438036395922        1.51107977371424       -1.84272442674382
C           -2.88700176126954        0.33149658084543       -1.30862048293758
O           -3.66579055092520       -0.48142693992727       -1.73460659594197
C           -2.07010980781989        0.07692284908496       -0.05982330294731
C           -1.07385200708208        1.01780777695622        0.56576808265848
O           -0.80846144654702        2.20524590899657       -0.02315794565287
C           -1.44036226439618        1.17794114150376        2.05697013633340
O           -1.51566511698101        2.26907154035968        2.56879739481818
N           -1.63267986078248       -0.02449266618544        2.59848964755476
C           -1.42847606988338       -1.18729403122721        1.74944863343039
C           -1.85591006751098       -2.44476956617925        2.48734392433409
C            0.06096096665020       -1.16876964910898        1.28851803796588
C            0.35401035698003       -2.31557628662282        0.32755140215676
C            1.03360157665784       -1.17713958287169        2.46283017488334
N            0.23976758637961        0.18179405597165        0.60468864448354
C            0.75501181999516        0.11231149251951       -0.82341489011569
O            0.04297281030378       -0.26476299259638       -1.69514245237501
C            2.11787849023223        0.56486829433702       -0.85197174602318
N            2.80450180974597        0.98161937355671        0.18661914372106
N            4.02200921442199        1.30506866246818       -0.25421664329006
C            4.03530262557845        1.07184110026712       -1.54900412273351
C            5.15800197629199        1.25955986154013       -2.48453291739350
O            2.86255077841878        0.60640642769149       -1.97061958835004
N           -2.22919100162614       -1.02856237390553        0.54758634335465
H           -4.45283574341639        1.76070981922929       -2.85507739001566
H           -3.09177881821533        1.15812111373832       -3.84160198775837
H           -3.10547864354023        2.86314765585774       -3.28898729557300
H           -0.79377861015057        2.91252761871192        0.64962913994560
H           -1.83965518244412       -0.13372197019146        3.57661573989465
H           -1.24707828897557       -2.59569985953054        3.37514616575914
H           -1.76385662874153       -3.30870553253820        1.83265937532901
H           -2.89866216045890       -2.34064993333646        2.78330620968368
H           -0.37857485074109       -2.35342062256988       -0.47704501517290
H            1.35227497710357       -2.20923412913676       -0.09287041099335
H            0.31808484006584       -3.25078193942650        0.88346468005922
H            2.04759212681581       -1.02112191488003        2.09622591630350
H            0.78600895509188       -0.39099077940597        3.17347623123291
H            0.99255469080403       -2.13874537896361        2.97078302492131
H            0.92397806891193        0.73770465916163        1.12819780963815
H            5.51299358857649        0.28598177118086       -2.82680103092389
H            5.96932210250067        1.78711572189085       -1.98906193321179
H            4.82301924405149        1.81715685207980       -3.35888783196458
