42
 energy: -83.583138382719 gnorm: 0.000910098428 xtb: 6.5.1 (579679a)
C           -6.10353591083843        0.69807451623942        0.70051823017316
O           -5.11512335398654       -0.32469323865742        0.76796640840970
C           -3.96270047326786       -0.11164760461178        0.02986193883091
O           -4.03336479881344       -0.61188796692370       -1.27558842567902
C           -3.50395637574598       -1.91685465184548       -1.46984868863447
C           -2.80926310038324        0.48069866133343        0.51265593032486
N           -1.71207272540302        0.42086384668296       -0.35078022848259
C           -0.57704582827535        0.90525951358074        0.02790556898606
C            0.62251936665848        0.88366565211443       -0.90540269759246
C            0.37402466146660       -0.10518376455396       -2.05242965449438
C            0.83320851331444        2.30442110909618       -1.45384665798576
N            1.78094112673026        0.47903489002992       -0.10049317988644
C            3.02295591519317        0.23870784505867       -0.70444506735549
O            3.37094425104002        0.75265199155811       -1.78769207791421
C            3.83675316914288       -0.61300455984289        0.10626451458306
N            3.47101726770813       -1.19659093770748        1.25182848044157
N            4.54132467101054       -1.94119483092264        1.66643746644071
C            5.47955348446620       -1.78838053117727        0.79057159914638
C            6.83080586000380       -2.40249245959108        0.80945553586456
O            5.12743800008920       -0.96911341668365       -0.22883406793963
N           -0.39695968215090        1.48447407162475        1.24572387240570
C           -1.42350393502215        1.66167426402971        2.18760636943190
O           -1.12434803465587        2.24730642760793        3.26103494115420
C           -2.72064684989050        1.14711655801328        1.80741557290976
O           -3.73711632429767        1.29657975034286        2.56913796373042
H           -5.74093793088248        1.62430551410602        1.16376146347494
H           -6.39379848819887        0.90268782153940       -0.33723250492724
H           -6.97669411375853        0.33943877100372        1.24936153533026
H           -3.99306410534377       -2.65144597072928       -0.81664348852730
H           -3.68786292248565       -2.18903567968247       -2.51112174421662
H           -2.42184603576197       -1.93256946268172       -1.28005079434295
H            0.26590199685268       -1.11567381393956       -1.65847598845564
H            1.20105032957246       -0.08486273964344       -2.76003683704292
H           -0.54547651765487        0.16524690237706       -2.57103764543732
H            1.65644323779491        2.32665668165869       -2.16531274291359
H           -0.07455238639027        2.63803107561149       -1.95604874393921
H            1.05595987605387        2.98939439915345       -0.63639383299815
H            1.55655034480318       -0.21587105810651        0.60585980446825
H            6.93685465039290       -3.02101099560402        1.69738933079960
H            6.98109632364483       -3.01860307601497       -0.07769148168404
H            7.60004620442848       -1.62954726648966        0.81580781760802
H            0.50848164283841        1.85337476264532        1.49054020593171
