42
 energy: -83.586043538324 gnorm: 0.000187242440 xtb: 6.5.1 (579679a)
C           -6.02778952413999       -2.66774780817914       -0.10573310133052
O           -5.04130376870120       -1.69246577637244       -0.41495814087192
C           -3.94724637823764       -1.67674449710305        0.42415510981508
O           -3.90709000141169       -2.46205474261014        1.36371598072709
C           -2.92345261214215       -0.70177966053971        0.07891927594529
C           -2.94847108915905        0.17330677350691       -0.97393635339750
O           -3.95177446119524        0.26261620408331       -1.89589621286430
C           -1.84746137805119        1.27903782434444       -1.14845598131643
C           -1.46443117424984        1.30852619254852       -2.68273858495759
O           -2.25661114996811        2.44390748990500       -0.68947807551964
N           -0.59688373184444        0.76616829355844       -0.46780257266123
C           -0.73916582526690       -0.08030476883559        0.50583397695097
C            0.53075806969759       -0.38896970462933        1.33041918095011
C            0.34965856662550        0.13137802730949        2.76265531898829
C            0.78776699349484       -1.90094852045840        1.33808522490976
N            1.62796574813534        0.31273855770198        0.67083346393409
C            2.91851226981113        0.24036106673752        0.98477186526242
O            3.40128242293767       -0.37257203910878        1.93786241707518
C            3.75786909393670        1.00799101202140        0.02224769581229
N            3.33220467977410        1.71573862196475       -0.98431621714265
N            4.43867139813603        2.22127382856531       -1.60839327564587
C            5.46457678348297        1.78980575243145       -0.94720007862540
C            6.89413224568793        2.04852191577009       -1.23211761172119
O            5.10906512826240        1.02061186390113        0.09572226272804
N           -1.80133526775694       -0.77677382264988        0.91492956524006
H           -5.59486129225349       -3.67322419491251       -0.11828402496291
H           -6.46035029134670       -2.48260059736363        0.88269846825868
H           -6.80428693834161       -2.59531694353341       -0.86512553233767
H           -4.66742659292719       -0.36934974368288       -1.73367359535295
H           -2.31501984162256        1.66172455263689       -3.26520408980978
H           -0.63283071349984        2.00075170329398       -2.81618339388751
H           -1.16802385473655        0.31840857471199       -3.03041013809772
H            1.20667001258932       -0.12807235699344        3.38421559543208
H            0.23347383733475        1.21576318717918        2.75853091603496
H           -0.54822415169387       -0.31777792785039        3.18847691802726
H            1.61856386955444       -2.16041881376968        1.99351473267266
H           -0.11496186810404       -2.40316984631300        1.68858790774397
H            1.01136313713350       -2.24852366286055        0.32919571923382
H            1.31298699224100        0.85058747874394       -0.15017191883803
H            6.98163701713565        2.69680799748207       -2.10013171282019
H            7.41219785436665        1.10995663462890       -1.42727027240555
H            7.36964778631197        2.52283187475070       -0.37442271117619
