42
 energy: -83.577887730820 gnorm: 0.000960726463 xtb: 6.5.1 (579679a)
C           -1.70155703454093        1.50175636822666        2.05972019173350
O           -1.86169074672600        0.08636276734449        2.11196694033864
C           -2.76134993918309       -0.45215996706924        1.18548075045053
O           -4.07017566260877       -0.60666058013725        1.69137485861069
C           -4.17418160704364       -1.53680797129509        2.75984342121491
C           -2.47333363639921       -0.52070423494833       -0.17204937235838
N           -1.18585122895752       -0.14141136546707       -0.53787377778641
C           -0.87445477897283       -0.22815012874734       -1.81644825780847
C            0.54014739608118        0.24418964089007       -2.18360362243688
C            0.46908926293356        1.73907020694234       -2.54208146005660
C            1.08730919839469       -0.56855099901326       -3.36261992370706
N            1.37741382354418        0.05571856738876       -1.00177241214632
C            2.68609772493914        0.39508059753364       -0.91433386876318
O            3.38054188949672        0.78508008550461       -1.86614899652779
C            3.20429154302474        0.20697553181576        0.43802585347614
N            2.52949996428297       -0.22822245347906        1.48468539590488
N            3.40608690266873       -0.25054454050734        2.53424267889266
C            4.54556662582226        0.16368252290065        2.08353180620166
C            5.81007926551078        0.31501653986905        2.84244957591727
O            4.50486074180460        0.47205047698119        0.77060376501535
N           -1.62448803947160       -0.63043202778735       -2.82402931703538
C           -2.92680548160306       -1.04888331584538       -2.55328310338813
O           -3.65741537443072       -1.45765219863742       -3.50065642700531
C           -3.33921545270276       -0.98094485326730       -1.19379461204637
O           -4.64757323629186       -1.40326066976081       -0.90119970770971
H           -2.66582541985287        2.01703314968834        2.15422428368100
H           -1.22372619849210        1.80429412483854        1.11728954594025
H           -1.06145535542780        1.79067668662936        2.89649298675887
H           -3.52599849250401       -1.24691042090429        3.59594804238594
H           -3.90206260169567       -2.55009161471533        2.43441989607710
H           -5.21156363291908       -1.53406365160294        3.09792828102273
H           -0.22780592651398        1.87939911839204       -3.36845827520950
H            0.11404196722399        2.30638914620979       -1.68138815797005
H            1.44783161943427        2.11736785989499       -2.83582785879448
H            2.04319425362760       -0.17243743925047       -3.70222898161132
H            0.37135897309793       -0.52672261135565       -4.18464289807478
H            1.22038888018768       -1.61041792020582       -3.06903946577789
H            0.85952221188632       -0.11577997114940       -0.13999957193817
H            5.63718774962831        0.07696508934951        3.88899531626812
H            6.57348783180162       -0.35291976926376        2.44315067720058
H            6.18030550289580        1.33647133220086        2.75944699144789
H           -4.87177448195526       -1.12985110819212        0.00165780961251
