42
 energy: -82.884528580643 gnorm: 0.000628345566 xtb: 6.5.1 (579679a)
C            5.20247611565434        2.86074553307940        0.84794163942498
O            4.25149963133794        1.83373554239471        0.55208129646103
C            4.62057929320326        0.58414539911171        0.83870654686449
O            5.69065108046769        0.30196890372380        1.32165636658425
C            3.54924745059902       -0.39845821258396        0.48645832069673
N            2.44363406292072        0.11153677059074       -0.05451154218254
C            1.41825152016282       -0.65364103372851       -0.36177293328971
C            0.21279125266642       -0.02163588285734       -0.99801178853022
C            0.45696655915516       -0.05893740528377       -2.52433336036095
C            0.05929189173888        1.43416025165022       -0.51893165747606
N           -0.95697911356403       -0.79067608147371       -0.65565649761587
C           -2.30376564034952       -0.38067066717905       -1.07891460558586
C           -3.05305550779613       -1.71765724697740       -1.46752030796726
O           -2.39129589286877        0.52417890957149       -1.98167351050983
C           -2.97759844647582        0.02366087932823        0.25874255263801
N           -2.38125580479415        0.44553329449308        1.32335038743661
N           -3.37534400821305        0.74702257698726        2.21512265542602
C           -4.50003771614207        0.48012931949773        1.63261167113595
C           -5.86588920238230        0.64178832128471        2.17662132655792
O           -4.31202265754376        0.01361732233940        0.38238341717873
N            1.44197598195723       -1.98721478198549       -0.16493488586469
C            2.52270209410313       -2.68357645490365        0.37076420062444
O            2.47297940317522       -3.88502946451105        0.49463904373795
C            3.71272190581085       -1.81795106180925        0.74922262105953
O            4.70831147657346       -2.33285917807614        1.23201342892209
H            5.43206471260021        2.86227240189300        1.91613154404983
H            4.74183772996631        3.80254359875224        0.55800005892275
H            6.12133405971523        2.69575601976719        0.28035497946909
H           -0.36586361406709        0.42923437580555       -3.04044520084399
H            1.38555204838467        0.46032373646908       -2.75317969371978
H            0.52799350179832       -1.09276607754918       -2.85484500067504
H           -0.18433495340176        1.44202804234357        0.54218962150624
H            0.99750804223706        1.95988521265955       -0.68479400014136
H           -0.73633057773343        1.92526627654579       -1.07426588810582
H           -0.93752132752324       -1.25169059721994        0.24202626280600
H           -4.08594084551966       -1.46284533159404       -1.68657015360558
H           -2.99868316847852       -2.43140282834447       -0.65250785767109
H           -2.56377958178531       -2.10884974731730       -2.35411234149405
H           -5.80826699107578        0.99306822250302        3.20408695090520
H           -6.39582807272707       -0.30983347907635        2.14258904349215
H           -6.42397555023002        1.36064375593217        1.57594248516733
H            0.64739885843998       -2.54754813425960       -0.43665719542435
