43
 energy: -83.890924382025 gnorm: 0.000603975327 xtb: 6.5.1 (579679a)
C           -5.81464983324501        1.34146706918102        2.00868668101673
O           -4.80350940960805        1.19185294692417        1.03006427334082
C           -3.76888470522847        0.32475927795554        1.37345457410468
O           -3.79058750913959       -0.22596534757331        2.48511205451696
C           -2.77860065279952        0.18043455148284        0.37959027098459
N           -1.69911957547461       -0.58215211977663        0.71767830845357
C           -0.71135129802645       -0.78107656103659       -0.07183715623746
C            0.48656442799927       -1.60753342818369        0.33467746398248
C            0.52621584666803       -2.92605027487939       -0.45404453641236
C            0.43813763100139       -1.87725799817796        1.84213515529545
N            1.68955553746925       -0.81315157278894        0.01490817226509
C            2.95085837502074       -1.22246908534062        0.22358532158389
O            3.29220387052766       -2.30244574437339        0.67888187705948
C            3.92204639469316       -0.16317284588473       -0.17211667059613
N            3.62492700576961        1.03486794871831       -0.57618555703033
N            4.80572555562424        1.67270852924770       -0.81948182345621
C            5.74695975998804        0.82178647162790       -0.54782045574646
C            7.20773544631877        1.02678865542784       -0.66111965168470
O            5.25406367840926       -0.35461056248628       -0.13194535826712
N           -0.70647603813131       -0.27627243480607       -1.39870386023901
C           -1.75043618098254        0.39449426157195       -1.92117160850644
O           -1.83340178727585        0.62125564063602       -3.12855849251037
C           -2.83258246915469        0.90356367744777       -0.95597302653281
C           -2.60726274841019        2.42710657642564       -0.79558938731260
O           -4.08508764474608        0.68529866805463       -1.60679229169899
H           -6.31023326578623        0.38536871501987        2.21767214905328
H           -5.40391528860916        1.73248192688523        2.94759339315887
H           -6.54595507708742        2.04797636587706        1.61363473972771
H           -0.39866172848767       -3.47508776182869       -0.28216261009003
H            1.36644785264593       -3.53971843815630       -0.13441447017889
H            0.62434320882633       -2.72415242392911       -1.51914098118230
H            1.27581489279753       -2.50211790837790        2.14541752707093
H            0.47548326445552       -0.93534697980012        2.38865617859952
H           -0.49457809902970       -2.38572789993820        2.08464465705066
H            1.55320237906834        0.11394033859521       -0.36162643482314
H            7.41149300843562        2.05767924139334       -0.93970599191782
H            7.61892704920309        0.35948296594984       -1.41875674485134
H            7.69324158924006        0.79956045554776        0.28750374750936
H           -0.01093404097595       -0.60829743505986       -2.04567423750574
H           -3.41821821009871        2.85457059839584       -0.20891315227082
H           -2.58775461344409        2.90251043823177       -1.77547504141655
H           -1.66085224864017        2.60934904116680       -0.28934387348358
H           -3.95089934977697        0.81330446063635       -2.55734013081937
