47
 energy: -80.234322589756 gnorm: 0.000815823712 xtb: 6.5.1 (579679a)
C           -3.54096349548973        0.11312904438184        1.65935323196815
N           -2.28490580919226        0.29330369557673        0.93555898390464
C           -2.10715729435516       -0.14071993601981       -0.38250448339460
C           -3.12212637128500       -1.05098428854124       -1.07561384000293
C           -2.96980756196444       -2.48849160452485       -0.55392007604457
C           -2.84764927776932       -1.04046114471877       -2.59067143866342
N           -4.49665120280668       -0.60254691227417       -0.83669961435347
N           -1.02618453388859        0.08278763938082       -1.03300844336442
C            0.05451292254352        0.78633742285553       -0.45592135167628
C            1.30764113850047        0.67000496559634       -1.17586589455821
O            1.47605140965948       -0.04842281560725       -2.17481515927596
N            2.34121501956061        1.47314122314988       -0.72242294012369
C            3.69769163744518        1.19318143277158       -1.16496643138642
C            4.32033022958687        0.08828430155177       -0.33526981421840
C            4.00700184216557       -1.24593630060332       -0.59279567446253
C            4.54171719945660       -2.26219419210332        0.18569309245551
C            5.39086834963460       -1.91710166326944        1.22172944164324
F            5.91514853298495       -2.89859781457434        1.98207134347095
C            5.72858700165397       -0.60709447281696        1.50480829025095
C            5.18167554200879        0.39611661879640        0.71526881460603
C           -0.12578061440645        1.46266957836669        0.74028204852428
O            0.73005858147692        2.03877330906226        1.46430835914236
C           -1.58765849740560        1.53997088225452        1.25751704585540
C           -2.28606299895706        2.76064734489855        0.61359865714244
O           -1.53421692605833        1.71291590709750        2.65143091883252
H           -4.33346095147449        0.76740812572071        1.28249775558380
H           -3.87625456039920       -0.91854917225514        1.57839953318618
H           -3.36764085435174        0.33664124072037        2.71400236595894
H           -1.94372699062153       -2.82813517510164       -0.69729200473332
H           -3.21313914607898       -2.55192165510052        0.50579936730770
H           -3.63791790534200       -3.15500678394490       -1.09915807680446
H           -3.58548810002547       -1.65703190627585       -3.10210425224467
H           -1.85034776528837       -1.42768694292506       -2.80103849394542
H           -2.91223071454836       -0.02232819007987       -2.97383349103148
H           -5.13677454506028       -1.31074041307002       -1.16613996378255
H           -4.67719029141749        0.23518476544293       -1.37619260462655
H            2.26489275118730        1.83537823026125        0.22270056016341
H            4.28832312709099        2.10954787156813       -1.07364880177103
H            3.66379662348121        0.90054901908052       -2.22034885951983
H            3.34095317506969       -1.49243290753513       -1.41356166319541
H            4.31252141370383       -3.30272916250637       -0.00607489566596
H            6.40273590206967       -0.37956778321669        2.31904706112830
H            5.43807303037141        1.42923051134437        0.91908951388278
H           -0.60085170164276        1.95586999615036        2.83939465997014
H           -1.68532226812357        3.64795761274204        0.80653839347313
H           -2.38102030231712        2.61441818405769       -0.46091079759500
H           -3.27326274937965        2.90523131423335        1.04832562798466
