46
 energy: -86.334066744007 gnorm: 0.000479246446 xtb: 6.5.1 (579679a)
C            3.65704791184266        1.62913580570982        3.76944151255453
O            3.58259604723462        0.95375733469906        2.50749588909493
C            2.39908018363250        0.93192901247427        1.91220579835290
O            1.39986833905488        1.43976725137060        2.36990533712698
C            2.40391226728150        0.21678571053136        0.60194988130791
N            1.16934373783397        0.18293486152105        0.01242781979333
C            0.96039624270054       -0.37430759372160       -1.13634609716564
C           -0.50499225065265       -0.35036921856846       -1.57718370274104
C           -0.79280160506357       -0.08354160619104       -3.05025163019844
C           -1.16600011345673       -1.64664869641759       -1.09515934827686
N           -1.09110565011788        0.78769926174839       -0.74846242748256
C           -0.75888647051748        2.14739211823035       -1.24771272911975
C           -2.57690553639376        0.68776188421265       -0.56355900252031
O           -3.31074177349593        0.94967317449052       -1.46331377020546
C           -2.88011351603259        0.29339728706247        0.78878747715937
N           -1.99844557597684        0.04520732950242        1.72676097341103
N           -2.68065352937573       -0.29662196284692        2.82438289925634
C           -3.95565653366551       -0.24443346385103        2.51398475021930
C           -5.10535039378071       -0.53134536652539        3.39058461101942
O           -4.13332602792330        0.12202611290341        1.24606612306900
N            1.95493162449889       -1.00732166480691       -1.82358427763606
C            1.76112597065445       -1.71086796062119       -3.09328730028123
C            3.25684741294978       -1.01601436842582       -1.33029683338077
O            4.18221525285934       -1.54578262755691       -1.92598829303693
C            3.46030979204936       -0.36110789377209       -0.04041114760432
O            4.70825904196864       -0.38678760210311        0.42252766096666
H            3.31490492094327        2.66077228003579        3.66158270491025
H            4.70158276717983        1.60352942769979        4.07391607619797
H            3.03285789678003        1.11507091363310        4.50402649844579
H           -1.80876439287019        0.29358859712206       -3.15738935507692
H           -0.72788703956036       -1.00820093593991       -3.61750650517702
H           -0.09781471074710        0.64184831003748       -3.46717599039787
H           -1.07812613654168       -1.73249569343303       -0.01277306078322
H           -2.21691849126541       -1.66697136207859       -1.37798234728025
H           -0.66798252473828       -2.49823001153273       -1.55416885850930
H           -0.61200105426351        0.68590311098406        0.17579376656083
H            0.31003885401858        2.18271698229055       -1.43599480749940
H           -1.32502707729977        2.34699802414076       -2.15227405716074
H           -1.03111822707871        2.85502553058894       -0.46776575449023
H           -4.75410915764132       -0.88512750121938        4.35692212700684
H           -5.69922493897434        0.37402644881150        3.52414863674002
H           -5.74451290118210       -1.28310151643410        2.92727434088545
H            1.66308678710046       -0.99004841591019       -3.90243796479752
H            2.64154356938214       -2.32938797525822       -3.26541937297712
H            0.88065673919627       -2.34297276039342       -3.03515909918399
H            5.27786026945211       -0.85525957219658       -0.21799415108162
