33
 energy: -58.551083320606 gnorm: 0.000879556485 xtb: 6.5.1 (579679a)
C           -2.73888951976701        2.08812080792184        1.74464419792309
O           -2.04821500490481        1.44321128766103        0.70794429348127
C           -2.44527089231899       -0.01606117084411        0.51240748102401
C           -3.44987085743968        0.04298606022563       -0.69669751517959
O           -2.89098732865969       -0.58836632406828        1.57624285329827
C           -1.10806783726937       -0.66490969837574       -0.04325898447993
N            0.04590379752071        0.07616444893903        0.01510162329414
C            1.16514860569463       -0.43507001870626       -0.37312646356384
C            2.45658703220307        0.35471380227318       -0.28169411585991
C            3.01049757886321        0.19995486126786        1.14138377420314
C            2.18958740187162        1.83147219414365       -0.59879459262268
N            3.41665043677304       -0.22944661359653       -1.21728803120927
N            1.26833064470585       -1.71391183948074       -0.82700228766280
C            0.18463540744451       -2.55336255192746       -0.93690164288842
O            0.29217539411370       -3.70602284250837       -1.36990381662263
C           -1.05392010909982       -1.95365753022161       -0.50251256512007
O           -2.15286084426030       -2.76110613222323       -0.60360763004905
H           -2.76275367220984        1.48302546015923        2.66503232158339
H           -2.22039849394881        3.02733891029326        1.96478974917562
H           -3.77946578844221        2.32923698958648        1.46926644928036
H           -2.99363351064762        0.53331023274733       -1.55505397208046
H           -4.32964406677159        0.60362288671445       -0.38446194462903
H           -3.75431664151622       -0.96570968345327       -0.96666512745265
H            3.92044286582245        0.78721417136304        1.25208798309404
H            3.24242802871225       -0.84632727863484        1.33790050324510
H            2.27668636834247        0.54555228395452        1.86964389121596
H            1.82168834041428        1.93473134388208       -1.61886616315373
H            1.43955887331517        2.22599194993486        0.08787553267475
H            3.10831552679001        2.40555550554728       -0.49730468377631
H            4.35125164020060        0.06232680695082       -0.97416941372831
H            3.23288598473319        0.10281857343247       -2.15405058082360
H            2.17518207267528       -2.03524528034269       -1.13686074691767
H           -1.86966243293993       -3.60815261261528       -0.98253837567270
