42
 energy: -83.020612049242 gnorm: 0.000466378454 xtb: 6.5.1 (579679a)
C           -5.19038130521253       -1.34155613973267        1.94881528742104
O           -3.96740529276348       -1.04907236131197        1.26831584862695
C           -3.96643987698711        0.04141340932180        0.49597336166336
O           -4.93288625289344        0.75753769049862        0.37232502138036
C           -2.64760908426264        0.24168606162831       -0.17496571230858
N           -1.68640471104771       -0.68013836855605        0.14847982636350
C           -0.51771559128173       -0.59137909250614       -0.38467035193851
C            0.54467246012558       -1.62157533720629       -0.07237064621914
C            0.20871284715838       -2.34700794285526        1.23400360470863
C            0.61444244008921       -2.60203932891162       -1.25378217062228
N            1.81904785756980       -0.90808937704196        0.06562724634084
C            2.99659582440058       -1.53659632299913        0.27975130853164
O            3.16421410371218       -2.74354851657008        0.29381451139227
C            4.11428052831956       -0.58185620453938        0.48761896922074
N            5.36173946808493       -0.85566070795898        0.71091800406399
N            6.00978185298083        0.33620728851986        0.83874822516275
C            5.11806588871910        1.26505381822427        0.68631255376920
C            5.31465257818284        2.73013355380063        0.72929765248616
O            3.89673492997644        0.75146743202113        0.46243881174141
N           -0.21401619864833        0.38423803656137       -1.28729639211304
C           -1.08647579134770        1.37415759237980       -1.69214017153416
O           -0.72266675676995        2.20931825619589       -2.50666922266627
C           -2.40462820164492        1.27283905237433       -1.05774350438552
O           -3.38137585879505        2.14752981821224       -1.32182369165258
C           -3.21270527220327        3.25724236756459       -2.20420935628988
H           -5.98792184205404       -1.52639963387217        1.22484507179777
H           -5.00981807441167       -2.23292319785429        2.54617458170797
H           -5.47323634403412       -0.50466672493392        2.59195968415456
H           -0.76354212219333       -2.82812429102728        1.13983249570645
H            0.96465790554889       -3.10088240202639        1.44566442961914
H            0.17183793270732       -1.63350137974697        2.05561794705025
H           -0.37437108360934       -3.02274480921283       -1.43069059190322
H            1.30981610409576       -3.40968213709722       -1.03398355385904
H            0.94490686367500       -2.07948491673622       -2.14947588284455
H            1.78969992940653        0.08952849404141        0.19411268587035
H            4.72626804593794        3.16058215873993        1.53950462296206
H            6.36713667478611        2.95550157285827        0.88353156020049
H            4.97615757510121        3.17590964915603       -0.20561700087706
H            0.70311154390418        0.41727504866316       -1.70598218739794
H           -2.41652843261675        3.91831334574376       -1.85577518572760
H           -4.16506351938270        3.78896993167364       -2.18845028449473
H           -2.99534074231763        2.92202261451635       -3.22073040511299
