47
 energy: -80.167336409858 gnorm: 0.000874323084 xtb: 6.5.1 (579679a)
C           -3.84844476713313       -1.81340351347662       -1.26864179288129
N           -2.49182281183624       -1.35352415488609       -0.98624572543481
C           -1.48757504233528       -2.31798394058785       -0.99083089973891
O           -1.69498838995389       -3.50869727538886       -1.40049386063489
C           -0.29884632029407       -1.90933167848024       -0.34564887345421
O            0.53373227324850       -2.93383682607976        0.06866010837425
C           -0.08857229947279       -0.56884494262382       -0.00025481730997
C            0.76917755454603       -0.01401519700314        1.00162222249250
O            0.74851770860825        1.18234642147307        1.35451740523194
N            1.64316497592053       -0.90388340785353        1.63783442865029
C            2.75841090961598       -0.33234008099898        2.38195362072802
C            3.85059123635927        0.14422802467213        1.44623612628070
C            4.85932851079589       -0.72863467690888        1.04320188226848
C            5.84978894777815       -0.31286169856922        0.16310412548273
C            5.80611211235115        0.98821438694581       -0.30232640127742
F            6.76758987038974        1.40345980108085       -1.15018327344406
C            4.81976844074693        1.88229852098841        0.07277552712008
C            3.83774498029510        1.44744654989270        0.95134402985992
N           -0.87798246991953        0.37857663317203       -0.77100216577921
C           -0.42368101743811        0.48122533276882       -2.17653280483382
C           -2.23928997035646       -0.04836087840236       -0.66919463358910
C           -3.22669521029620        0.86818190714745        0.02448847954293
C           -2.46395374497770        1.98966497472546        0.75422243533213
C           -4.18895244603568        1.51281993021780       -0.99346536978232
N           -4.04104983777318        0.11629936050696        0.99404292617431
H           -4.50804189111210       -1.59693740347462       -0.42685524909159
H           -3.82225619603237       -2.89048160880212       -1.44331800869627
H           -4.22991849228282       -1.31785117423629       -2.16356419188408
H            0.13909776199654       -3.75574419637396       -0.27794657406212
H            1.89591915120436       -1.73248715764977        1.11458288812431
H            3.14901950533627       -1.10243817076813        3.05377238251385
H            2.38281453969627        0.50222533867470        2.98328077678134
H            4.88133449116408       -1.74323157836029        1.42461580320899
H            6.64093122094425       -0.98033835399476       -0.15158644186109
H            4.82558610421005        2.89336667371382       -0.31360082662351
H            3.05120323201285        2.12909212982029        1.25733243520833
H           -0.48123825397296       -0.48023010677331       -2.70313568301718
H            0.60951445566033        0.83054850903855       -2.18477161919949
H           -1.05621982829326        1.20785000442485       -2.68814991994563
H           -1.75771547224711        1.56956672385960        1.47052409844812
H           -1.90668632283558        2.59527633108896        0.03952734808403
H           -3.16945649808455        2.62740238108485        1.28612486334294
H           -3.61832305551847        2.02161105512504       -1.76979264265617
H           -4.81812963956000        0.75716347039975       -1.46076745974276
H           -4.83357803163023        2.23929328816771       -0.49796135015066
H           -4.77877882346928        0.71586537926682        1.33477633900216
H           -3.46715215000516       -0.13856810655686        1.78911333283076
