42
 energy: -83.647717970301 gnorm: 0.000854611841 xtb: 6.5.1 (579679a)
C           -5.35718903402025        2.86770922441222        0.03396212889770
O           -4.20420425019482        2.06126466053957        0.17231552529018
C           -4.13507196314007        0.96915755572896       -0.68558177485204
O           -5.06097174084312        0.77177714976817       -1.47483078079691
C           -2.95393491057315        0.19183343948679       -0.49707843924238
C           -2.63806216867902       -0.93786613638019       -1.28015684803993
O           -3.32857826695165       -1.44596397893637       -2.18598244892351
C           -1.26823158349933       -1.60632700687560       -0.92461670577087
C           -1.28680727735193       -3.08989263126081       -1.30797169599114
O           -0.18798723202881       -0.95485310132996       -1.57686706570047
N           -1.11166611755828       -1.48285228519530        0.51778845708190
C           -1.12620548592606       -0.11873508057744        0.88400155420095
C            0.11643944618342        0.36374627253169        1.61330214709047
C            0.32582525956246       -0.40141409522884        2.93019733727951
C            0.00377016771263        1.86953333844776        1.89227023616654
N            1.16299403794869        0.06725796776570        0.62224276312481
C            2.40539887531222        0.36035747256632        0.91859729354633
O            2.89892825661191        0.86068204704098        1.95331885537694
C            3.31435124212226        0.01151569054486       -0.23953618193088
N            2.95774375610606       -0.38336562709169       -1.42492174012331
N            4.10911362489443       -0.56699451288657       -2.15259078783475
C            5.08768743809744       -0.27070537506291       -1.36261786409200
C            6.53731881497920       -0.30913363133940       -1.67125142378795
O            4.66283263513930        0.10506161677577       -0.14450571000212
N           -2.00740149759427        0.68535022957756        0.44111198326779
H           -5.41020287990960        3.31787023477544       -0.96458762613901
H           -5.29176033442940        3.65769987510024        0.78255348069726
H           -6.27139153825745        2.28588907322821        0.20079477672184
H           -0.32243589071818       -3.54176805546355       -1.08474746610728
H           -1.48837577446460       -3.18730149267045       -2.37430635444339
H           -2.06446488739897       -3.60771233084166       -0.74947987970659
H           -0.25029176183123       -1.93021016666098        0.81591952310478
H            0.47271349472316       -1.46410686557656        2.74027496387570
H            1.20108397251374       -0.02111179214472        3.45543322530242
H           -0.54799758786148       -0.27817897976213        3.57124270459042
H           -0.11638462816624        2.41733217486640        0.95636664149742
H           -0.86793203468692        2.06092967224406        2.51968348434996
H            0.89328644886245        2.23115319797106        2.40620373697714
H            0.44081388163544       -0.60494834751453       -0.86794834284339
H            7.05471970524372       -0.95959637774877       -0.96696523933836
H            6.96820642622601        0.68840831400964       -1.58822331120663
H            6.68432036220237       -0.68148833682927       -2.68203313155720
