33
 energy: -58.543911908051 gnorm: 0.000636223633 xtb: 6.5.1 (579679a)
C            3.70083828185138        2.00421947677218        2.05447450439578
O            2.51212799392354        1.50901265789160        1.44957064204876
C            2.68197848639648        0.67131569555246        0.40495679617260
O            3.81253293713690        0.37987131366950        0.01059217316944
C            1.45133083185547        0.16214718037121       -0.17295005331298
C            1.47633380559213       -0.71144130572899       -1.22288523477860
O            2.61678441815410       -1.14008528074315       -1.78660437997711
C            0.17601061109141       -1.18341696237115       -1.94091190715924
C            0.27905002507395       -2.72936192354888       -2.15747175763076
O           -0.12381302773293       -0.49060040679851       -2.98978638708768
N           -0.89618209602284       -1.04183463679900       -0.81736758883996
C           -0.84364993075933        0.01614368120078        0.02842920741945
C           -2.15355747774747        0.49920008231631        0.64850563425873
C           -2.90016573746228       -0.66457660109932        1.31076302787386
C           -3.02589631775913        1.14632178757549       -0.43699061133436
N           -1.87742314177206        1.50545408598748        1.67293277394826
N            0.24263104999178        0.60693085196159        0.39773304937552
H            3.39434643152915        2.67288199720691        2.85743354227672
H            4.29482116343107        1.18110007777183        2.46282748644357
H            4.30638990030121        2.55078771887431        1.32538450504533
H            3.39168010139804       -0.73945141890043       -1.32591956733585
H            1.10856567796382       -2.93667951232924       -2.83165323197251
H           -0.64444161694642       -3.07958485835001       -2.61440300741262
H            0.43689421831064       -3.24653382460655       -1.21248556995129
H           -1.81424291639784       -1.27027491364015       -1.17231682235310
H           -3.21189985062465       -1.39763712169784        0.56810193209571
H           -2.25747456210783       -1.15905088196813        2.03931011717864
H           -3.78575497704818       -0.28982655184383        1.82393747893231
H           -3.28287579422651        0.41893589016201       -1.20633599782484
H           -3.94465541169257        1.52671179711695        0.00876422179389
H           -2.49307662049866        1.97656095291528       -0.90153167397689
H           -1.39044003748593        1.05939028483043        2.44245620634974
H           -1.23676641771662        2.19336966824908        1.28343949216916
