42
 energy: -82.971558912050 gnorm: 0.000721779310 xtb: 6.5.1 (579679a)
C            6.37230830482691       -1.23986133108067        2.30040105161664
O            5.24975722111675       -0.37912352774162        2.15054817314757
C            4.32731750314192       -0.76479355146603        1.23980873029537
O            4.46878935389571       -1.79883097923093        0.60021968919869
C            3.19288453081273        0.14234448661321        1.10025155651191
N            2.29188047469900       -0.28008457910104        0.14518918992992
C            1.23856754436633        0.39894294515905       -0.11059641686649
C            0.28578461758816       -0.05748307089234       -1.19428891361773
C            0.32035744675026        0.92907497284450       -2.36826678608211
C            0.64919062907599       -1.47666052448543       -1.63333097769283
N           -1.07816349382994       -0.05220132487537       -0.60345784861288
C           -2.19023243786094       -0.38036280473131       -1.21036577154590
O           -2.14789646548231       -0.79506547799455       -2.44398069519355
C           -3.31821899227521       -1.18601005412241       -3.17746970325299
C           -3.41943556100667       -0.25954154781226       -0.46371913880250
N           -4.64489485382940       -0.53936027732004       -0.81825952294152
N           -5.43421861354770       -0.24361157727651        0.23187104339870
C           -4.65787331653586        0.20473094001302        1.18075469821332
C           -5.04860246261994        0.66302916935048        2.52724516371844
O           -3.37444032819668        0.21487800501874        0.79943003549350
N            0.94876825146703        1.58224791141209        0.54233367977244
C            1.75206368475897        2.11826092989171        1.52502840809464
O            1.42609081845950        3.16650041102583        2.06761035965478
C            3.00973926558991        1.33713752116212        1.84819510123614
O            3.77312730680380        1.78277589373087        2.71895992383415
H            7.00717545374406       -0.80492850543505        3.07149987188157
H            6.92787245284901       -1.31546344938774        1.36047718679416
H            6.05283764838244       -2.24185601204830        2.60309648234113
H           -0.31894744848710        0.59036459942767       -3.17922234740371
H           -0.01399988648302        1.91129960030435       -2.04092714570140
H            1.34374519898075        1.00447890590105       -2.73381905354229
H            0.52867221592330       -2.16537966983542       -0.79875674599642
H            0.02594784364882       -1.80010978569521       -2.46185444144973
H            1.69281696570228       -1.48447662063604       -1.94652906684690
H           -1.16767654503353        0.25669293629207        0.35679824456477
H           -4.00519489016526       -0.34282917542693       -3.26141947868083
H           -3.81422118163371       -2.01759451397732       -2.67475889930740
H           -2.95772742414459       -1.48857600331953       -4.15872694310345
H           -4.57304360163791        0.03734521041761        3.28322493752905
H           -4.71050643822539        1.68804382619403        2.68066368816802
H           -6.12927844094707        0.61073036248831        2.63411488830571
H            0.11887864935555        2.09879473664592        0.31202879293414
