42
 energy: -83.601130654667 gnorm: 0.000740419057 xtb: 6.5.1 (579679a)
C           -4.44089523251856        3.28260491679557       -0.30011766576819
O           -4.15227990703035        1.92696379884071        0.01930942375218
C           -2.83760065621797        1.55966154905145       -0.09055726754415
O           -2.01223110457448        2.38523578811882       -0.45078610527981
C           -2.54811239779834        0.15863489661773        0.25759624164357
C           -3.49868095771274       -0.81751918763038        0.52128277448048
O           -4.86838195613250       -0.60855873397215        0.57008346617580
C           -3.07685187155954       -2.24493646629839        0.60668859302877
O           -3.95035185969331       -3.16021360772088        0.59793436331236
N           -1.77718705637529       -2.50419384014092        0.64485089299176
C           -0.83404310470839       -1.41718188389888        0.74109600873202
C           -0.41370914646040       -1.26520727938508        2.23692190775295
C            0.43106349658277       -1.82915263112620       -0.11389082237614
C            1.08426857859378       -3.10110458216628        0.42635739541837
C           -0.03367800865267       -2.05249293394525       -1.56162452779944
N            1.32723389504408       -0.67815824506191       -0.09014550349749
C            2.66568871947064       -0.65529704551944       -0.20784708235763
O            3.40602934186775       -1.64398479634623       -0.29918808740585
C            3.17994965052573        0.72468089924101       -0.19746076926753
N            2.46908227696085        1.82436140944186       -0.12126610817547
N            3.35148631199507        2.86850193997021       -0.17473425899339
C            4.53313062710271        2.35381736716036       -0.27983828646527
C            5.82400232623950        3.07543379246272       -0.37007019719430
O            4.50829363402605        1.00683863544424       -0.30302575450065
N           -1.22226356787326       -0.10779767675311        0.25836487256633
H           -4.18405217516153        3.49794374198708       -1.34186473817033
H           -3.87850775746921        3.95947180513368        0.35035099244838
H           -5.50826541427076        3.42931004819953       -0.14706800197509
H           -5.09194892446901        0.31800297456993        0.41405562924222
H           -1.22465635813903       -0.78636236609483        2.78482431365307
H           -0.22458104596805       -2.24139960106557        2.68202844409551
H            0.47798794037947       -0.64465970493289        2.32203653955019
H            0.29437048873887       -3.82555670272837        0.63705264778232
H            1.63878532193369       -2.90553099615698        1.34324108683117
H            1.76968189667875       -3.53519624121717       -0.30115679677393
H           -0.75831882241319       -2.86793090674272       -1.58329032089111
H           -0.50978057087305       -1.14652030175430       -1.93964942059723
H            0.80865842892295       -2.30483334219556       -2.20548750752469
H            0.82494346149829        0.21194476490705       -0.09860943554862
H            6.32704480903635        2.83413112045864       -1.30600225469788
H            6.47820462713760        2.77975704250821        0.44924347988148
H            5.64647306334264        4.14649258194825       -0.32175016053270
