42
 energy: -82.966857484608 gnorm: 0.000485323566 xtb: 6.5.1 (579679a)
C           -1.95376680742262       -3.25295723432228       -0.78304041556068
O           -1.73084069061527       -1.96651001750458       -0.18914708511499
C           -2.70814435609362       -1.11562397905152       -0.10744372571314
O           -3.85021690594797       -1.53910963991018       -0.55319055955493
C           -5.00323113424419       -0.73871347345150       -0.84222467970375
C           -2.38595985129444        0.17467097120937        0.44047775731314
N           -1.04558565779199        0.48428387734290        0.37192968189983
C           -0.65372959338735        1.64541647115456        0.84597332578257
C            0.81748609786887        2.00061779173825        0.69192545389346
C            1.35855393089883        2.57768316494416        2.00566019870761
C            0.94639094493986        3.02014036587202       -0.45066138590032
N            1.53373620206230        0.77355552929360        0.34852767764987
C            2.85449384168601        0.70066283647740        0.13179142174700
O            3.64279405334640        1.63199912605489        0.18866307080018
C            3.27099320227998       -0.69597139843512       -0.17890202829772
N            2.50589772372747       -1.74621480734385       -0.18585310160204
N            3.30150378402471       -2.81018041644306       -0.49686361585041
C            4.50049068525537       -2.33970178402611       -0.65939142997910
C            5.72674970242222       -3.09084220499050       -1.00892143416527
O            4.54642480774597       -1.01222883163793       -0.47122706333953
N           -1.40551314438299        2.58302861317327        1.42526921129806
C           -2.71727109853194        2.34059662711350        1.59510016143483
O           -3.53161109245216        3.08958380389801        2.15304951885412
C           -3.23742491677229        1.06012883832202        1.06834429789402
O           -4.52640934901029        0.85664294549923        1.33104457712954
H           -0.99679597079896       -3.76907232517188       -0.75464089667261
H           -2.29597205975220       -3.12908814556803       -1.81110759073331
H           -2.70356710472982       -3.79984825285423       -0.21024992369964
H           -5.66278022684959       -0.72905288512133        0.02526855158373
H           -4.71210041744293        0.27608664452474       -1.11179815880524
H           -5.49807760157837       -1.22925203667182       -1.67995030990056
H            0.73567902798213        3.41941575348740        2.30586335135544
H            2.38465474566474        2.91839363502645        1.87887190135093
H            1.32756004559971        1.81837743868590        2.78602603068893
H            0.60124087885067        2.57578267166527       -1.38323682427225
H            0.33228343690895        3.89046303969167       -0.22297620877920
H            1.98307380000120        3.33266918832161       -0.56578485677198
H            0.96053272109648       -0.05448978407853        0.22711995449266
H            5.49650314666273       -4.15042392150311       -1.08595257777313
H            6.48973533328620       -2.93591742999553       -0.24629685789050
H            6.12335490502366       -2.73494406746787       -1.95961810480408
H           -4.82113603825379        1.66994430204271        1.81661169100529
