47
 energy: -80.194501801274 gnorm: 0.000337026676 xtb: 6.5.1 (579679a)
C            3.34326557417320        2.06296241050302        0.77058649283591
C            3.23484469777701        0.57029688818864        0.35220056567340
C            4.02566267617884       -0.29584078950875        1.30510413695008
C            5.13046527082131       -0.95364044920906        0.88720016078015
F            5.83972101203415       -1.66299198411355        1.81827505903070
C            5.59382531751902       -1.01227801078795       -0.43547591149374
C            4.79301454943562       -0.37636489967281       -1.40084887312740
C            3.68760254160767        0.36385476173881       -1.08308335337998
C            2.79988860885067        0.92161719800521       -2.16144397721085
N            1.49219402627543        0.24206852630604       -2.09691227578054
C            0.51599451323890        0.77164420852352       -1.30835643495818
O            0.46227705338413        1.98150524197473       -1.05221289531465
C           -0.55338852087695       -0.15568728585967       -0.85602956078457
N           -1.62666803352332        0.47890197723201       -0.27859122466407
C           -2.65485576878414       -0.16208961085898        0.16750910473317
C           -3.74729116015032        0.69067249271662        0.80586723065928
C           -3.54922350530735        0.69450624859921        2.32921433377225
C           -3.63178436443321        2.13166510023519        0.27953153114932
N           -5.07296750207652        0.16104257814626        0.49305319211297
N           -2.73431651138412       -1.53603509702465        0.12169982597208
C           -3.87495860891128       -2.30212708658894        0.61708190872344
C           -1.71046876688214       -2.28026170998461       -0.46123104221037
O           -1.76363797831115       -3.51657028357362       -0.54377310071219
C           -0.59004474181752       -1.53056108656578       -0.94925038678594
O            0.40551521296470       -2.28566723745664       -1.49439546067786
H            4.36472088472533        2.41889560468382        0.63250303494042
H            2.67006014170721        2.67846292373098        0.17300768515110
H            3.07466681678934        2.17431138109478        1.82197932150194
H            2.15622042948255        0.31316004991653        0.43353075168429
H            3.70592526493342       -0.33740827137652        2.33943708210025
H            6.48684305639064       -1.56144282438084       -0.69602590922311
H            5.07505472481341       -0.47704893968131       -2.44741900755807
H            3.22843672385385        0.74391454431354       -3.15383166417216
H            2.61485773106179        1.99694915900678       -2.05517236871668
H            1.55220623783165       -0.76392450333628       -2.15916094023333
H           -3.67473902089338       -0.30366948534235        2.74518579587164
H           -2.54885648207419        1.05270091694227        2.57240471215969
H           -4.28066703438788        1.35535465888283        2.79195828330452
H           -3.72617809524133        2.14253573649911       -0.80572327179770
H           -2.66783477371267        2.56134771717150        0.55193639361214
H           -4.42723087488053        2.73790088342728        0.70891124882629
H           -5.75903148419095        0.61084789644575        1.08146115714308
H           -5.31038593522231        0.37671067904461       -0.46660981374294
H           -3.55962861663605       -3.33810566015285        0.74558506351493
H           -4.21642952892740       -1.90580080347821        1.56852579687248
H           -4.69370357815916       -2.25923710389954       -0.10083330768399
H            0.12102682093921       -3.21707966049624       -1.44987608885177
