47
 energy: -80.182235797590 gnorm: 0.000313846346 xtb: 6.5.1 (579679a)
C            1.76484160408455       -1.30369898143228       -3.44050611954804
O            1.94902382655781       -1.03061910700668       -2.05221067935427
C            0.91371266255649       -0.31444953851073       -1.43928127644495
N            1.00513752409499        1.10992698139459       -1.60847828744551
C            1.30746099393733        1.86326522117267       -0.37256296638950
C            2.69734608467235        1.55897989403551        0.12112101379339
C            2.93563241499783        0.42621312100264        0.90320656079343
C            4.22213079268000        0.10055449693944        1.30921693937951
C            5.26162260772146        0.92306419461519        0.91589895158207
F            6.51456506594463        0.61993612164751        1.31529361272744
C            5.06831335433448        2.05023495978639        0.13652234979375
C            3.77516485761639        2.35793503929396       -0.26182119433104
C           -0.15793808447528       -0.91300919247228       -0.83037830733033
N           -1.11122114063068       -0.04948523883967       -0.27070557281179
C           -2.15901292709700       -0.49781524981366        0.33588762910489
C           -3.08757079215252        0.57511675598690        0.91824387604295
C           -2.63194450973159        1.96462873840172        0.44108339092745
C           -3.03379895912159        0.54533173784165        2.45215557941225
N           -4.47058980775214        0.35569614119949        0.48065149361741
N           -2.41988363452004       -1.82680845938498        0.47786363518297
C           -3.57231172320725       -2.38483898518435        1.17582210892951
C           -1.47797830484996       -2.82834041898419        0.00462323011063
O           -1.77050097471100       -4.03386663981096        0.22418868539521
C           -0.37061225437434       -2.31880051086150       -0.64868070544300
O            0.54762409711035       -3.25291679925227       -1.17422550494708
H            2.67692310710649       -1.78354983298311       -3.79913354240675
H            0.91296590203099       -1.97776573502225       -3.59930318072777
H            1.60040388385670       -0.38071636712801       -4.00799264951996
H            1.74599734505738        1.30422801893985       -2.27798619575430
H            0.55549210299949        1.59790440044897        0.37688746774874
H            1.20875323858076        2.92780168141536       -0.60634145643839
H            2.10481617738481       -0.20272388126281        1.20494605120490
H            4.41923265549756       -0.76875539253439        1.92398962852099
H            5.90871570843940        2.67017519591224       -0.14671415531123
H            3.60366395180661        3.23848537211540       -0.87081603643745
H           -2.59802871346737        1.99942239411664       -0.64735393771534
H           -3.33036430016270        2.72041774990948        0.79763743418610
H           -1.63905597602712        2.19295547503475        0.82693034155358
H           -2.00143212724792        0.64413717627711        2.78781390713980
H           -3.61135484435661        1.37563896415494        2.85736623163080
H           -3.44455084645639       -0.38105621171243        2.84922955428682
H           -4.54588613495987        0.55979950962277       -0.50773379913793
H           -5.07035047767487        1.00761654064029        0.96534379088487
H           -3.89654286370690       -3.28987654013140        0.65454557679848
H           -4.39802883143659       -1.67864889456538        1.18944689541385
H           -3.30421743430021       -2.65758241284820        2.20146458495480
H            1.40363970334472       -2.81414249216302       -1.28515495361433
