42
 energy: -82.947979228716 gnorm: 0.000834809531 xtb: 6.5.1 (579679a)
C           -6.22597715527572       -1.29569582076619        0.74985409576607
O           -4.99020600856365       -0.82911684779208        0.17281889115095
C           -3.89924072869237       -0.91697243298911        0.96277074964640
O           -3.94280963721751       -1.35578695454966        2.08027490603624
C           -2.66170705095472       -0.41075958532874        0.28925389289481
N           -1.53954034578020       -0.55017815369554        1.00752590178817
C           -0.39949041349940       -0.14472457964023        0.44159380186234
C            0.84162214192133       -0.33105383168755        1.29909395622925
C            0.75196144282412        0.62001811266919        2.50184565296130
C            0.92738498053005       -1.79195856668791        1.76048125394305
N            2.00003648892368        0.00575558348760        0.47774725193280
C            3.27198945294815       -0.07008238053796        0.89443317931019
O            3.64010082765735       -0.39824552783936        2.01208285593763
C            4.21656543448579        0.29337338959172       -0.19858728733517
N            3.89765411358210        0.66987061849617       -1.39985141928713
N            5.06666892682871        0.87640553832185       -2.07115646368874
C            6.02373019063317        0.61081649744457       -1.23581963825884
C            7.48111800069418        0.67201565216587       -1.48457725053189
O            5.55212253741250        0.23842125400270       -0.03665816921080
N           -0.25898913351691        0.39634071705451       -0.74601334224802
C           -1.35369828134205        0.60752241045949       -1.54821797864632
O           -1.27751222138437        1.14095004428233       -2.65667842251012
C           -2.59860592315163        0.14751061375070       -0.96461467407560
O           -3.77660554559186        0.27761018074848       -1.78814453914066
C           -4.17754173686003        1.63968178218473       -2.12880528648183
H           -6.44359473666079       -0.72504468128258        1.65428675392370
H           -6.13836295663592       -2.35649633728801        0.99153694069427
H           -6.99625055379065       -1.13456530015121        0.00075987508279
H           -0.16533407709547        0.41358756794942        3.05114792020927
H            1.60575222605688        0.47609925117224        3.16212451592316
H            0.73513617627696        1.65334789655439        2.15784991245777
H            1.76509604730509       -1.92674991350511        2.44246806266213
H            1.05764635163067       -2.44683014686822        0.89988170570474
H            0.00303310676647       -2.05712810528243        2.27130923164820
H            1.79640503361692        0.30426338059427       -0.47198415579875
H            7.66361258851480        0.97865742086412       -2.51130286168597
H            7.92923577877728       -0.30604839718423       -1.31022875280276
H            7.94793203666060        1.38288779517673       -0.80322245507168
H           -4.52298472786595       -0.18255291794427       -1.30787397396501
H           -3.37186645942344        2.06582104550467       -2.72465531089816
H           -5.09041792755882        1.55044926125207       -2.71094008311944
H           -4.34406526318178        2.20858346728627       -1.21520624300335
