42
 energy: -83.004726586565 gnorm: 0.000762265682 xtb: 6.5.1 (579679a)
C           -2.67735830267359        0.47210653054422        3.95881349540797
O           -2.68818228694128        0.74800929125397        2.54861595572893
C           -2.11624901917588       -0.13407206048141        1.75931841197640
C           -2.34180664751774        1.80572671084540        0.11091433139412
O           -1.61133601130497       -1.16507084666492        2.11410443179635
C           -2.19460800701203        0.29189502248202        0.26258128536300
N           -0.94903053766480       -0.14137243773794       -0.32460425422441
C           -0.82928975567180       -1.29676690095635       -0.83243673178971
C            0.51838125107520       -1.76088202021463       -1.35112754725126
C            0.45625683263124       -1.92061140526812       -2.87694400731121
C            0.92572330982635       -3.07305461972051       -0.66597203185360
N            1.47196174507558       -0.71277391591276       -1.00086615104245
C            2.78326916135751       -0.75938493082985       -1.29356410077548
O            3.34318682738322       -1.65769815591822       -1.90293894424623
C            3.52634782521055        0.42149605956532       -0.78210966479556
N            4.79688541698103        0.65863206516163       -0.88724341545015
N            5.03031900516583        1.84311884983399       -0.25513510966921
C            3.88820019040701        2.25581893877721        0.19876393408325
C            3.61285625844048        3.49187005896122        0.96284475953174
O            2.89426517562393        1.40268119396802       -0.10078728578038
N           -1.88117475335067       -2.19087605568029       -0.97317670707843
C           -3.18759134875005       -1.87889903977744       -0.73903835954953
O           -4.08714287522449       -2.66776639874393       -0.91643895910488
C           -3.41715590947998       -0.44064286949122       -0.25941379945806
O           -4.51546617500804        0.04931431042714       -0.26420023514503
H           -3.25058534734486        1.26691120514490        4.43005194383699
H           -1.64878795051210        0.47390182513330        4.32330224613571
H           -3.13382906076802       -0.50070563686883        4.15083659187635
H           -2.29556121558207        2.06481510651927       -0.94503305190954
H           -1.53438927819417        2.30763928650222        0.63768047660986
H           -3.29789291133467        2.12790610024628        0.51870689548605
H            1.41891169373436       -2.26712014826817       -3.24865611223650
H            0.21594700120819       -0.96528231549122       -3.34044046772606
H           -0.30744967195746       -2.64860752371037       -3.14194712693849
H            0.22977730308688       -3.86679589064178       -0.92793989599596
H            1.92144732478205       -3.36315415725642       -0.99664934842839
H            0.92966620930519       -2.94142768033109        0.41496507739829
H            1.09292393427009        0.08336795635628       -0.50341778681262
H            4.54062690700178        4.03515106696702        1.12587862656844
H            2.91345648890892        4.12170496534891        0.41354697488374
H            3.16045689962505        3.24349781365127        1.92260433318989
H           -1.70597969563496       -3.12066934770387       -1.32344867669152
