20
 energy: -38.277477081692 gnorm: 0.000574612185 xtb: 6.5.1 (579679a)
C            4.14680286233476       -0.19508262177158       -0.29698269168326
O            2.77093272345670       -0.48180350367202       -0.26112174235519
C            1.94431933271515        0.67828245797299        0.04099111554742
O            2.52752032676863        1.79223821330813        0.25098239136757
C            0.62629707794982        0.36027249748078        0.05442554418235
N            0.00541781453833       -0.89848368350883       -0.19308914621693
N           -1.28587371224494       -0.62807635856163       -0.06492600154049
C           -2.23924492466301       -1.69415618308093       -0.25868587717092
C           -1.57166019543231        0.62587451793747        0.21179371122173
C           -2.90849277303847        1.22271191150432        0.46246613712108
O           -0.41856968841822        1.35728648622235        0.32809417073988
H            4.51288011650027        0.18870348980789        0.66737576540449
H            4.67271075365982       -1.12649066532264       -0.52500212459330
H            4.39269509283971        0.54694536837838       -1.07193828021566
H           -2.81559461638393       -1.51903563420516       -1.16715588866879
H           -2.91834393300451       -1.74435164335306        0.59128079523688
H           -1.68705706795547       -2.62712587156755       -0.34867396248756
H           -3.62024510966095        0.91979969038526       -0.30631080272933
H           -3.31323928242112        0.91471317604878        1.43069835104216
H           -2.82125279754037        2.30777835599725        0.45577853579818
