47
 energy: -79.491961097697 gnorm: 0.000995137820 xtb: 6.5.1 (579679a)
C           -4.36635403403157       -1.08359873847079       -0.18739698263824
N           -2.90995936352010       -1.13479610659119       -0.03247491922337
C           -2.43061639545262       -2.39022563805312        0.46472649540730
O           -3.19638108943794       -3.25895425664221        0.76056160050314
C           -0.92444537605684       -2.55333094599363        0.48354359877252
C           -0.52662447793947       -3.04188795107127       -0.94475025277939
O           -0.54402739769560       -3.47893625492289        1.44565257925379
C           -0.25771959388639       -1.23400962644471        0.67975731685608
C            1.16667878074928       -1.15175322795726        1.17504155864426
O            1.95056957348522       -2.07285580090543        1.04531268715287
N            1.44079608744679        0.02969699186963        1.74164383575426
C            2.77692262640984        0.32847867720463        2.25533071614281
C            3.66662026449262        0.81199457131088        1.13014369960139
C            4.44655013222814       -0.09715091491730        0.41914490385531
C            5.25657313049448        0.33460250407457       -0.62112677562088
C            5.26159464328265        1.68277099379807       -0.93291401180686
F            6.04365895689503        2.10789935092140       -1.93511857532936
C            4.48998214272732        2.60912687310001       -0.25422571121651
C            3.68631399582460        2.16089294753538        0.78460774752227
N           -0.82293947996310       -0.13974003162630        0.29029985662726
C           -2.10114650861431       -0.09400878207467       -0.17250983197402
C           -2.49958551655018        1.24669716551930       -0.73080604535823
C           -3.13880645456808        2.03977615612883        0.42627470361431
C           -1.25368488471410        1.99253513680747       -1.24104338255999
N           -3.46362123263755        1.09552437584457       -1.80108035379251
H           -4.70624611884274       -2.05914456706864       -0.53047653737717
H           -4.80742419954624       -0.86005448487830        0.78318120498422
H           -4.61801050390626       -0.30680862188261       -0.90659730527374
H           -1.05471070340326       -3.97056603780964       -1.14909943562639
H            0.54724823767134       -3.22040988166838       -0.94213080998726
H           -0.78263204344236       -2.29565955268281       -1.69145700938794
H           -1.17083373557138       -4.21579657751705        1.47423733750480
H            0.75431172994562        0.76436267353284        1.71285595442242
H            3.17763828474803       -0.58907239155043        2.69597014396013
H            2.66919660275013        1.09211626254750        3.02710124600191
H            4.41543651103948       -1.14931910238884        0.67798311338647
H            5.87012078939749       -0.35851813668340       -1.18216342472041
H            4.51471827983976        3.65389545014989       -0.53442312764468
H            3.07064587273805        2.86676133717669        1.32811462014256
H           -3.37383772191638        3.04109320373447        0.07038206704409
H           -4.05447656577215        1.55505976815577        0.75841039479063
H           -2.44439780910238        2.11126243427318        1.26103046904859
H           -1.56907920599519        2.93915969367105       -1.67513419471668
H           -0.75068434636624        1.40111590295835       -2.00384012690374
H           -0.56155852986450        2.18648772775501       -0.42425433490585
H           -3.85685456962676        1.99576189707151       -2.03481402753243
H           -3.01891678374860        0.70952453464732       -2.62148567460316
