43
 energy: -83.153065846458 gnorm: 0.000443352522 xtb: 6.5.1 (579679a)
C           -2.05770182597830        3.74472055264268        1.01071026731101
O           -1.94869363758513        2.35080381022695        0.69518941177289
C           -3.06134074457685        1.75390881293962        0.26443916009696
O           -4.11391159279601        2.32683482887220        0.12496851710103
C           -2.83758296826949        0.30315463852565       -0.00740200821183
N           -1.54076688985512       -0.13743624972467        0.13068015393278
C           -1.25552520965979       -1.38086282132412       -0.05295474852164
C            0.19938638979264       -1.79102667456092        0.04391169163478
C            0.42145290198035       -3.14212205085313        0.71061467467083
C            0.80129492567814       -1.75689510838297       -1.36523370762700
N            0.83419324188118       -0.67270823861839        0.85153668876789
C            0.53924414330975       -0.71991217003067        2.30770440762293
C            2.32601159726040       -0.59611871837814        0.66765915365846
O            3.02826627581225       -1.41998772880414        1.16011256225842
C            2.66285379890299        0.56765081848365       -0.11060680755117
N            1.80307324854977        1.41475137105839       -0.62404990370804
N            2.50998934441000        2.33886234084886       -1.28167774072571
C            3.77779949171422        2.02129594523932       -1.14282159873533
C            4.94839110341057        2.74138254177710       -1.67502115496517
O            3.92476252372287        0.91561319458126       -0.41656053039872
N           -2.18464729065092       -2.30752158932272       -0.40474567209811
C           -3.51773276681952       -1.98800102874323       -0.58068607514834
O           -4.35317439666273       -2.81583804973470       -0.89138719650463
C           -3.82780614104119       -0.57327293829830       -0.35946744228150
O           -5.10377268231285       -0.22961445355487       -0.51497912937677
H           -2.82521985353351        3.89615024305207        1.77353997866594
H           -1.08440665796249        4.05242001132352        1.38612494307129
H           -2.31686901554314        4.31248433941598        0.11362579045792
H            0.12941134110028       -3.92910257940084        0.01782796908463
H            1.47564737874643       -3.27140808114546        0.94960708661207
H           -0.17053319432077       -3.23775006101745        1.61811017312865
H            0.24283942021535       -2.44176365833301       -2.00124335223894
H            1.84343167764424       -2.07021223119940       -1.34427126364429
H            0.73122341033954       -0.75243228660755       -1.78046609976257
H            0.39707890865098        0.19296548187620        0.47973833689843
H           -0.53482309595334       -0.82693054566914        2.42819321754201
H            0.87915683696769        0.21891807026883        2.73823772499982
H            1.07339481186094       -1.55469464604654        2.75120404658034
H            5.50706503869189        3.18764048049106       -0.85075570135483
H            4.62419973517270        3.52254301062013       -2.35813638541559
H            5.61097640217917        2.04400594877032       -2.18720770869648
H           -1.92912108472543       -3.27355234094959       -0.54078137516261
H           -5.62751289974328       -1.01694319033083       -0.75203335374707
