21
 energy: -31.463806531039 gnorm: 0.000634423368 xtb: 6.5.1 (579679a)
C           -0.79994852539243       -2.04015570512308       -0.23212925867408
C           -0.43356959443961       -0.74950132900819        0.57055009281841
C           -1.68610999077936        0.01953672367911        0.93843455503178
C           -2.02681810967572        1.12819574243991        0.23449350707077
F           -3.23472398677414        1.72038909403410        0.53557379843760
C           -1.23383289864322        1.77128757762885       -0.72130067764245
C            0.07772638668741        1.26076979622669       -0.86371629824298
C            0.51404543827785        0.13034513901225       -0.23382408799360
C            1.96620566729746       -0.28766198902069       -0.31032137884344
N            2.85247215909762        0.56488699284732        0.51645794863554
H            0.09568347619957       -2.62464989718282       -0.44900685409970
H           -1.48990011671845       -2.65820343987627        0.34496758411207
H           -1.27787890192935       -1.77116180596333       -1.17536872760542
H            0.06883934503510       -1.10168566261372        1.49239975253789
H           -2.32721295401940       -0.37763982411348        1.71732831252830
H           -1.56321436966060        2.67044347001731       -1.22320790812825
H            0.78048192746093        1.82234274602680       -1.48086388936202
H            2.34325541734479       -0.23413992189370       -1.34233428333396
H            2.09593485253985       -1.32282773448870        0.03284798777893
H            2.77505276672337        1.51840584012089        0.18092277081514
H            2.50351101136844        0.56102318725072        1.46809705415953
