42
 energy: -83.623887751441 gnorm: 0.000486601384 xtb: 6.5.1 (579679a)
C           -3.92864654613235        3.52622771239977       -0.97428671532646
O           -3.79451788798200        2.21261785780209       -0.46645122271577
C           -2.51131542479810        1.73162527077519       -0.40240953865179
O           -1.58217244743570        2.45018890564061       -0.77828598713125
C           -2.37378304993381        0.36961104378256        0.09602063924692
C           -3.50054075372166       -0.43615709120919        0.43936330789721
O           -4.70648718801505       -0.03973165295137        0.51146010721798
C           -3.20332637809065       -1.87638474076785        0.68061855597008
O           -4.06586958119458       -2.74917583287140        0.86993040884771
N           -1.88645303436721       -2.26210576611715        0.57985307611769
C           -0.78300976378007       -1.31959299807971        0.70610750579477
C           -0.43598800712871       -1.15857918640849        2.21312885404857
C            0.44963362831075       -1.88104601929338       -0.08997744424906
C            1.03377534697112       -3.15380059527544        0.53354974387308
C            0.01656518830479       -2.14830399621361       -1.54025850635072
N            1.43950785994806       -0.80814393864118       -0.05961461029554
C            2.68430532752256       -0.89396764779184       -0.60364411353751
O            3.15963304815535       -1.92752884725373       -1.10999462334111
C            3.45621493169466        0.33382478580957       -0.50100568722146
N            4.67188367743367        0.55898139739986       -0.97185130236570
N            4.99298651049931        1.84245186949834       -0.62522041394834
C            3.98386487592281        2.32755819776565        0.02368265958473
C            3.86829604992010        3.68306208385641        0.61412379116985
O            2.96946140800774        1.44356771420373        0.14389415594811
N           -1.07429919163008       -0.03958970817121        0.14237489774015
H           -3.55181452052049        3.59323547898859       -2.00147939245487
H           -4.99059146028581        3.77320748019602       -0.96087791852852
H           -3.37970313043329        4.24633366619168       -0.35685288685150
H           -1.70296035448590       -3.19796790987206        0.90617567420177
H           -0.32303706484621       -2.12903902760486        2.69204895704259
H            0.48778867766328       -0.59339054452612        2.32125214649518
H           -1.23970975524257       -0.61543556033749        2.70874120927337
H            1.76885804126582       -3.60235388013672       -0.13389885148705
H            1.52352572437534       -2.92952089655853        1.47997783162959
H            0.24640699399057       -3.88484991758677        0.71023100075868
H            0.86895865886341       -2.46197947108914       -2.14130282025516
H           -0.73760424512731       -2.93465383720055       -1.56078101962864
H           -0.40979085507829       -1.23920456152511       -1.96766924190725
H            1.04524926283902        0.11633065284818        0.10413196960026
H            3.09171835193383        4.25761076075932        0.10812806634366
H            3.60517272842934        3.61345016865433        1.66928015005538
H            4.81781134817813        4.20261858093821        0.51256258740842
