42
 energy: -83.617767508100 gnorm: 0.000744044190 xtb: 6.5.1 (579679a)
C           -5.33318486621380        2.53429492413580       -0.21351832669715
O           -4.02576288211201        2.04517199335688       -0.22344612233880
C           -3.91065410412750        0.48441027742231       -0.30386789524224
C           -3.62882337759845        0.26030868652062       -1.83900755154390
O           -4.95950307128479       -0.13648180856544        0.12127915067417
C           -2.58297082725900        0.20784050355682        0.48967497812671
N           -1.60485943975549       -0.40802727674098       -0.23121174487023
C           -0.48031529078743       -0.75162547881553        0.30622457572951
C            0.57108422169057       -1.49816118516915       -0.48702104505383
C            0.24315305285622       -1.42271552373299       -1.98117142925075
C            0.63211084316743       -2.95888175808454       -0.01203654383040
N            1.87723265234217       -0.85236930523743       -0.23633072006452
C            3.03221871988920       -1.27539646483635       -0.76875460799284
O            3.17299192515778       -2.23880814999790       -1.51118217425877
C            4.20003300482753       -0.44076371748606       -0.37136591903268
N            5.43081177133222       -0.58300389669288       -0.75935150237282
N            6.15307389098327        0.39969606445372       -0.14735651570602
C            5.31910207812051        1.07987660551837        0.57529029405595
C            5.61581526709637        2.24941685985061        1.43135538426507
O            4.06712684273312        0.60255615233802        0.47760996124353
N           -0.23438932119468       -0.52154120275818        1.64443477132456
C           -1.13617462539264        0.09512319991920        2.48215135716477
O           -0.81427999806473        0.26653449447884        3.67186241292815
C           -2.44308331053655        0.49532911956882        1.86743108725813
O           -3.30120081315949        1.05242485382836        2.60846907778698
H           -5.36233816445279        3.48113427558068        0.34418840328610
H           -5.71450234050640        2.73743893631556       -1.23179685192961
H           -6.03764946655624        1.83438376499820        0.27115070800689
H           -2.79485325810731        0.86827904063710       -2.18734107144856
H           -3.40890109352257       -0.79252024069214       -2.01340494775890
H           -4.52873487217076        0.52741251580350       -2.39201255865159
H            0.95647877369114       -2.00378416853703       -2.56171150786528
H            0.26922447648280       -0.38603458725839       -2.31545165818080
H           -0.75867144038789       -1.81802798466128       -2.14736736007584
H            1.34935699105915       -3.52900001476517       -0.59900822433523
H            0.92379614014508       -2.99776865529912        1.03618823092120
H           -0.35215165267090       -3.41239957233060       -0.12278987778280
H            1.89664648699797       -0.02692621750485        0.34231037307000
H            5.05713383661196        3.11922229057205        1.08568838256313
H            6.68065800851588        2.46408585614583        1.39334191024346
H            5.32124903364899        2.04502869449403        2.46044858627039
H            0.64370519852901       -0.79573090032591        2.04740751136681
