46
 energy: -87.050689001152 gnorm: 0.000490816487 xtb: 6.5.1 (579679a)
C           -1.75288270200477        3.51231819484764        0.11002983947655
O           -1.80673458809910        2.09250198029860        0.23251320103461
C           -2.98064552993173        1.57372433076145        0.62999278954697
O           -3.94287204745074        2.27295550846443        0.88195350783189
C           -3.00483023061821        0.03585643764061        0.59592632920183
C           -4.13541315591179       -0.45868344093843        1.51215994590386
N           -1.74143205274543       -0.49599900673202        1.08297793754481
C           -0.81760121329204       -0.88250463053259        0.27584420609992
C            0.43820367367219       -1.42084580117254        0.97887719308237
C            0.55113380589766       -2.93522395460364        0.74953199828460
C            0.34189445440304       -1.14158377525601        2.48673952907179
N            1.62097316068249       -0.71238529200829        0.46502119659315
C            2.88306599732792       -1.02938908022764        0.80698256994898
O            3.21732463498176       -1.96879092348362        1.51677925484304
C            3.89705580050071       -0.12516228456261        0.20584536807028
N            5.18624190585139       -0.19095952991192        0.35335244101327
N            5.72013001165354        0.81794577826382       -0.39293072238507
C            4.72674268769808        1.43655455495719       -0.95009199559161
C            4.79015175627496        2.60348498040508       -1.85726350242354
O            3.54441610406593        0.89248092291404       -0.61286779409932
N           -0.91698309766556       -0.85361207340042       -1.07985655708736
C            0.06715742049398       -1.37801398807540       -2.01934257417883
C           -2.24671521116833       -0.71158559027168       -1.69303386298771
O           -2.35737603309813       -1.00853098674582       -2.91868557050711
C           -3.23033794339143       -0.32079470758678       -0.84344013026144
O           -4.55940070149106       -0.18664669590294       -1.31547998551611
H           -1.78612553255046        3.97916495844112        1.09863958615491
H           -0.81295494033441        3.75531926101079       -0.38145975306205
H           -2.59370748835879        3.87950841793704       -0.48588458607420
H           -4.20398026840201       -1.54387679087241        1.45281369370005
H           -3.92930921346619       -0.17314870999215        2.54323058000851
H           -5.08432229978052       -0.02210644943864        1.20254830434205
H            0.86354105512527       -3.16141399981545       -0.26693718771395
H           -0.42161126963923       -3.39193978125220        0.92947854997908
H            1.27258907468271       -3.37372908155322        1.43662624196356
H           -0.52484623481032       -1.65411613735320        2.90034032394695
H            1.23974559724281       -1.49798050294949        2.98896537474933
H            0.23254538989661       -0.07233318673551        2.66260016374268
H            1.46913315932087        0.15879169498691       -0.01958590670163
H            4.32435169054900        3.46963554386737       -1.38747682947882
H            5.82914054891315        2.83213320532344       -2.08180452364827
H            4.25336855058033        2.39019336977470       -2.78095276887219
H            0.01877197255225       -0.77979903528640       -2.93169201805736
H           -0.16423013425110       -2.41587514077166       -2.27889614408811
H            1.07391816950997       -1.31831821547686       -1.61844126866740
H           -4.54728273343065       -0.47722234698252       -2.23925944473806
