47
 energy: -80.186530259760 gnorm: 0.000201655454 xtb: 6.5.1 (579679a)
C            6.72410764388874        1.19928014919784        1.26093796792415
C            5.60972397517093        0.91871146868609        0.21013373640113
C            4.28926987261816        0.61509116305368        0.88360031146279
C            3.71784259324163       -0.62966233327490        0.88064675034844
C            2.42684980516244       -0.82972737426723        1.64978929241199
N            1.30472417318513       -0.26351715392322        0.89881119321186
C            0.08507588472642       -0.83764811812517        0.88949891372060
O           -0.14659349092594       -1.91397665360842        1.44689951064946
C           -0.97900600741540       -0.09340399271167        0.15749954471266
N           -2.25342262529563       -0.51539084532397        0.43361968806842
C           -3.29310646614983        0.02873071666190       -0.10908420936475
C           -4.64196324829338       -0.55323236751907        0.30165652890460
C           -5.09367546905045       -1.57504951447701       -0.75265079411715
C           -4.48833523660065       -1.26343307993670        1.65794487418327
N           -5.64969618641795        0.49909991000369        0.41368623394114
N           -3.18546240209104        1.04005769667546       -1.04065832940982
C           -4.33222690781021        1.67255808725676       -1.68670302893290
C           -1.93384633740041        1.54747592090096       -1.39048528169506
O           -1.80478483144811        2.46698605710266       -2.21224532272008
C           -0.81019527524810        0.93439951966882       -0.74609943167355
O            0.40575835886695        1.43257075974934       -1.10940142412484
C            4.24642556696703       -1.70671719652764        0.14356523249447
C            5.38928217455470       -1.46420395523603       -0.65893796093628
C            5.97372606747732       -0.24839974827250       -0.65564672075713
F            7.05113119453978       -0.01610531346162       -1.48615275711667
H            7.67142925419969        1.40304550745216        0.76071276014176
H            6.45266176942448        2.06215002143913        1.86874797648836
H            6.84715610362534        0.33533331386104        1.91452931149078
H            5.53014258226080        1.83406193354305       -0.40537745363173
H            3.83760061890353        1.43066675088003        1.43948018838681
H            2.22069400627775       -1.89277515744606        1.81690996543671
H            2.48350869747604       -0.33413940809688        2.62919861320851
H            1.43881659018304        0.66317889711481        0.52673999578441
H           -4.32469508039236       -2.33579188906308       -0.88639158616393
H           -6.01273099234369       -2.05842758459330       -0.42420520321226
H           -5.28162784725099       -1.09462637044744       -1.71121042180819
H           -3.79474234481703       -2.10006449932701        1.57490954297198
H           -4.10909218725868       -0.56691505223780        2.40482736448298
H           -5.45841373819914       -1.63497513503257        1.98279717326556
H           -6.56529698679189        0.07831144329841        0.47371111127256
H           -5.50181377197948        1.02522976285681        1.26516446852399
H           -5.05791339181338        0.92476948273946       -1.99270689410198
H           -4.80938993307026        2.37173465910499       -1.00049537500631
H           -3.97420760131927        2.21242471401434       -2.56398843435712
H            0.24483990206790        2.15972550557379       -1.73801026182591
H            3.77477257483369       -2.68123660808758        0.14701551609670
H            5.77669594973091       -2.24617408983373       -1.30489187503233
