29
 energy: -54.513924107253 gnorm: 0.000522575490 xtb: 6.5.1 (579679a)
C            3.93610817491262        2.06060737699648        0.63269781985531
O            2.70376612430155        1.37345129702167        0.39511487615535
C            2.79241634720573        0.08778665278865        0.08330653578646
O            3.85705385266889       -0.49906875332281       -0.01349770739774
C            1.48478976316247       -0.56966538551879       -0.14145533457945
N            0.36034915981578        0.19957017005852        0.01904061432686
C           -0.79845070115692       -0.33555087466543       -0.16978631281090
C           -2.05980236837998        0.47754326066035        0.02450420174817
C           -2.90394092555396        0.46772833411443       -1.25656872490679
C           -2.85684041072961       -0.10722716824549        1.20622792939975
N           -1.66613905379746        1.85220326513082        0.29914662582447
N           -0.93370201641966       -1.64770382943447       -0.52754900640340
C            0.11605355818037       -2.52483729986542       -0.71845189194841
O           -0.08404770100537       -3.68389858774529       -1.04021207405659
C            1.42183416152594       -1.89614913464183       -0.49474334507142
O            2.48890592357727       -2.68194612571759       -0.65704558038536
H            3.67835117006271        3.09367951166797        0.85696441851745
H            4.57113937060824        2.00984789507014       -0.25477346372029
H            4.45892408640737        1.60675174966538        1.47762951560846
H           -3.21262634383156       -0.54408977032982       -1.51281722200344
H           -2.32724471046340        0.88627010376453       -2.08100835211996
H           -3.79514991241488        1.07484554603624       -1.10675643850896
H           -3.75559741256036        0.48518620151032        1.36660754669212
H           -2.25234809807593       -0.08118301012757        2.11171484710759
H           -3.14667562153637       -1.13673457295656        1.00227641641509
H           -2.49139916526879        2.38572926216307        0.53478193558358
H           -1.04761317435852        1.86403326764721        1.10256539326961
H           -1.85438345962445       -2.03832709741071       -0.66150028763702
H            3.31627138274451       -2.17885128431510       -0.47641193474243
