21
 energy: -30.734724791145 gnorm: 0.000339721970 xtb: 6.5.1 (579679a)
C           -3.92728958494745       -0.06654286484021        0.18068311196006
F           -2.73952956387078       -0.30423421989167        0.95878652302678
C           -1.33954292273952       -0.21573247475671        0.51652030065253
C           -0.81438597890787       -1.33439996256291       -0.07703914297913
C            0.52383328478522       -1.25385377544478       -0.44449931339002
C            1.25999142022819       -0.09162628631526       -0.21130050958303
C            2.70545027700576       -0.01332605758500       -0.63031628577051
N            3.42171900595825        0.97767680890564        0.16517883500807
C            0.64821201199809        1.00674315450068        0.39326941679619
C           -0.68746808468751        0.96262875363004        0.77305370068483
H           -3.76104762667200       -0.54536117133000       -0.77959038616899
H           -4.02641649205704        1.01261213294615        0.10987194636431
H           -4.71492004726283       -0.53580145002701        0.76249870808476
H           -1.40347658084813       -2.22495741843445       -0.24246624072148
H            0.99089801111318       -2.11049914794205       -0.91494854978463
H            2.74068461585479        0.29785227564361       -1.68055944668068
H            3.16796338446367       -1.00773537308408       -0.55997630566658
H            4.32139564539507        1.14366442096856       -0.26371924476850
H            3.58730905414783        0.59798282777326        1.08774842125443
H            1.22772275208069        1.90536884515040        0.57230862866981
H           -1.18110058103393        1.79954098269044        1.24611683301301
