16
 energy: -33.392173788168 gnorm: 0.000532269884 xtb: 6.5.1 (579679a)
C            2.69128851945138       -0.16445067010247       -0.28945547948440
C            1.24553428932554       -0.12470252021746       -0.43662291694580
N            0.56034168731736       -0.25873141708889       -1.62304391602534
N           -0.67085827797067       -0.17806092298855       -1.36990802679083
C           -0.86588741708887        0.04664320376922        0.01458793259276
C           -1.76566993882072       -0.97006203635357        0.71792400512678
C           -1.57465756134027        1.47731148813645        0.12301761144954
O           -2.69445079377999        1.56653379223221       -0.24626873874666
Cl          -0.63048167614185        2.69915179988581        0.77098138944280
O            0.43558956564745        0.05257633133055        0.54220291709058
H            3.06476588515743       -1.11093481631451       -0.69025745084912
H            2.98294310925154       -0.04621962204049        0.75156139134447
H            3.13533287898751        0.62406075821636       -0.90364292348303
H           -1.33367309780207       -1.96086237815729        0.59802522156244
H           -2.75469571758224       -0.93091188697295        0.26592259631213
H           -1.82542245461166       -0.72134110333413        1.77497638740363
