47
 energy: -79.484313637853 gnorm: 0.000499129152 xtb: 6.5.1 (579679a)
C           -3.86456421614696       -1.88681723451778        1.96582605056827
N           -2.75199291152354       -1.30815163819460        1.20477695855569
C           -2.90109241919499       -0.29307202490262        0.29400817227455
C           -4.25261945859611        0.34301595332157       -0.00464769574892
C           -4.55337354875005        1.39540753631036        1.07339643442009
C           -4.19231667755133        1.02877932999094       -1.38101279154434
N           -5.30304746556725       -0.66661402476352       -0.00902546995486
N           -1.88700227417689        0.21772796121281       -0.33556785954942
C           -0.62237985500952       -0.25776649964539       -0.15490432548900
C            0.44391201157565        0.46503372203663       -0.90069372977543
O            0.34371779230889        1.61322999588397       -1.28563510551136
N            1.57618473047648       -0.28076795260579       -1.14078253639414
C            2.73752583848138        0.31555355185267       -1.67488260551051
C            3.75105559986364        0.78613134625714       -0.48219404580193
C            2.96113785236023        1.76473436724582        0.40918163081720
C            4.12163711937017       -0.44572416749201        0.22470254408999
C            5.35895821906278       -1.00931401558178        0.11485968518755
C            6.32956197477197       -0.34933872276147       -0.64898649184394
F            7.51571144289684       -0.89044092390556       -0.75364822040745
C            6.09580504989132        0.87355122342004       -1.29033435849428
C            4.86103898100351        1.44472259552640       -1.18065711001158
C           -0.40810525716048       -1.28754032158425        0.71452962654671
O            0.80396485833722       -1.81468427120162        0.98434030242603
C           -1.51492393270766       -1.87284851314927        1.44868474734593
O           -1.34091228518724       -2.79962955211977        2.23454838327034
H           -3.45014331508095       -2.38635311896416        2.84122802072876
H           -4.55141934593947       -1.10669058593814        2.27667854474213
H           -4.39269777213381       -2.60888965042248        1.34527762420340
H           -4.65886170232314        0.93432683697287        2.05375504164703
H           -5.48126459330879        1.91101639809370        0.82949473296531
H           -3.74417078088700        2.12371555785624        1.11347428466508
H           -3.91385720257228        0.30629368216806       -2.14651842882521
H           -3.45830669986684        1.83336939347896       -1.37392468321895
H           -5.17126545180979        1.43991669014237       -1.62084553301811
H           -5.20632917897376       -1.25675339143981       -0.82458871811147
H           -6.20604539426229       -0.21504669345697       -0.05331851789858
H            1.64355761679047       -1.22370743404257       -0.79402119670692
H            3.28101363579077       -0.39039129379021       -2.29854938143138
H            2.47064520692790        1.21685600758408       -2.22948590102888
H            3.62624009721578        2.16314646697421        1.17251867072725
H            2.14164484132619        1.23631490929020        0.89162115040568
H            2.56374070044030        2.58206591853356       -0.18993542504769
H            3.34887292192226       -0.92800100214224        0.81299934062695
H            5.61015981024766       -1.93734183529820        0.61336492974918
H            6.90066256098649        1.35170816635663       -1.83517453317993
H            4.65968498883663        2.40158158151549       -1.64872980594302
H            0.68025888783970       -2.53231532410792        1.63879959448887
