20
 energy: -37.587251324567 gnorm: 0.000841745385 xtb: 6.5.1 (579679a)
C            3.42752088237734        0.72897218174111        0.60491144952579
C            2.40988377420932       -0.25111222648889        0.18910070670026
N            2.58907422006062       -1.50754562975078       -0.13425035410450
N            1.39119292019127       -2.01152667887636       -0.44124154205177
C            0.51816700566388       -1.04667319871188       -0.29339963734755
C           -0.88731799122988       -1.19025018528017       -0.57503949746911
O           -1.44110629875664       -2.15017451561543       -0.99670327804066
O           -1.67920342176622        0.00737490064287       -0.37216349527270
C           -3.08438807624885       -0.09170074044379       -0.77475155649690
C           -1.35108634365546        1.02773696667989        0.62828253030602
O            1.12177764712697        0.09198911221047        0.10670128648598
H            4.41907378165777        0.29031635846436        0.52534132485726
H            3.35942991202571        1.61876085722997       -0.01980231686286
H            3.24207527882183        1.03298725825800        1.63514201759321
H           -3.65436793788568       -0.54205709181618        0.03631403586424
H           -3.11266681785041       -0.70896097746001       -1.67003174696615
H           -3.41377919939676        0.92079188442466       -0.98852000098072
H           -0.87757819827897        0.54179346461489        1.47720946777814
H           -0.68804176315893        1.74977766400101        0.15708049538271
H           -2.28865937390736        1.48950159617615        0.92404111109996
