42
 energy: -82.971493033111 gnorm: 0.000385937060 xtb: 6.5.1 (579679a)
C            6.50656301709930        2.17359887011872       -0.95700561190875
O            5.43398047282128        1.76519533936871       -0.11663309220774
C            4.38605790208555        1.17713656841471       -0.73697799270118
O            4.38000968420192        1.02025006407158       -1.95091340745471
C            3.30829629333109        0.76000616676990        0.15408346752565
N            2.26906155005243        0.15112247497795       -0.51886181907835
C            1.24687818516628       -0.28674076311273        0.11286008459318
C            0.13916996935170       -1.00074076604337       -0.63087860326836
C            0.20093187454955       -2.50058702842720       -0.31402958758584
C            0.25907124533196       -0.73082563012723       -2.13161694804774
N           -1.14652976576676       -0.44765680874259       -0.13461826656460
C           -2.34722076563507       -0.84385333670587       -0.47317068951200
O           -2.48426772388207       -1.78710155239285       -1.36055825027374
C           -3.76412603818786       -2.29129072397506       -1.76976194959147
C           -3.46712214225668       -0.20301461728133        0.17261797525763
N           -4.74929333791540       -0.38837355756910        0.00452446361278
N           -5.38070622445464        0.44755097253633        0.85022733691738
C           -4.45819747690945        1.10619491707269        1.49849382722287
C           -4.64577626130290        2.13552677186356        2.53820414198692
O           -3.23065759070286        0.73846850615613        1.11139142234629
N            1.13255021442295       -0.19013070041563        1.48704023984227
C            2.08750851337126        0.40055711953283        2.28522733394471
O            1.91518294528509        0.45322239932617        3.49632697588158
C            3.30581344786763        0.94012257924543        1.56414086440165
O            4.19626718209975        1.48323913218195        2.23633916164767
H            6.94019448996638        1.31226332971976       -1.47445048106567
H            6.15921883803598        2.89512253269023       -1.70280191347180
H            7.25582308342673        2.63573962269565       -0.31517612032057
H           -0.52854781469076       -3.05572395826549       -0.89750152999747
H            0.00894953897854       -2.66559217244389        0.74408954266392
H            1.19744683405632       -2.86774597303031       -0.55702549830099
H           -0.47792458637731       -1.30401273927484       -2.68749829336798
H            0.11580345988745        0.32991731224414       -2.33060462713581
H            1.25909656159900       -1.01701459236291       -2.45674846176741
H           -1.10094925962418        0.30674829713826        0.53947855042512
H           -3.54948844932701       -3.07631233376368       -2.49226505542268
H           -4.29901633153733       -2.69421542867518       -0.90871052077853
H           -4.35052383726712       -1.49381535036125       -2.22833387750070
H           -4.18565193600181        3.07139551801377        2.21948760921089
H           -5.70754044750814        2.28870085569486        2.71561165754143
H           -4.15835872173501        1.82037882055865        3.46144900986423
H            0.32802640809600       -0.56771113742343        1.95454693243915
