33
 energy: -57.839879739067 gnorm: 0.000525880528 xtb: 6.5.1 (579679a)
C            3.71799570677070        0.90957482702594        2.37619541327401
O            2.55026199889109        0.93116894116880        1.53761346653628
C            2.49774911800581        0.04483447018995        0.56844118534548
O            3.35426743378611       -0.77074146868107        0.32698474422328
C            1.21067149480666        0.11777534150206       -0.22027626859273
C            1.14917278219000       -0.58628630654503       -1.56406081131801
O            2.36473043420815       -0.54975261231969       -2.24634238184108
C            0.09399825325963        0.09703580063030       -2.44432292386136
C            0.68970051726014       -2.04220318001729       -1.31678439689897
O            0.15474092973312        0.19291943431217       -3.64269966365621
N           -1.00155796423357        0.54201620125875       -1.74452642425279
C           -1.02976273447096        0.65045946316149       -0.33672645401337
C           -2.22880061751835        0.28068839937223        0.46541257318832
C           -2.04825151637178       -0.10018958991288        1.91444458420908
C           -3.44874763811722       -0.27636848075470       -0.22196582608852
N           -1.94088266665447        1.70818550848031        0.17309234055525
N            0.20299957953627        0.66819195418509        0.33258168839010
H            3.58689343085666        1.70914691137627        3.10151432687141
H            3.78999712161283       -0.05775982034975        2.87651654942866
H            4.61041057545994        1.07706814605663        1.76997312517148
H            3.06159445207941       -0.98439303264102       -1.72768279153599
H            1.42681668233017       -2.54584971529357       -0.69431111700333
H            0.61591546134904       -2.55447443001629       -2.27466283922019
H           -0.27663498676323       -2.05462822272475       -0.81926176542953
H           -1.72295040725370        1.00276229526918       -2.27285162808331
H           -1.93480043387261       -1.18153520717721        1.98555633975627
H           -1.16242151720491        0.37724582694032        2.32941744592689
H           -2.92480532359630        0.19901707998623        2.48747496994117
H           -3.36824878961668       -1.36290162689188       -0.25377040093270
H           -4.34362166255584       -0.00855614951675        0.33835170581881
H           -3.53777004723857        0.10045322763421       -1.23809209277584
H           -1.57804061470668        2.27902098899717        0.92415044350162
H           -2.53061905196383        2.18807402529590       -0.48938411663283
