47
 energy: -80.233354483033 gnorm: 0.000305272588 xtb: 6.5.1 (579679a)
C           -4.54190387907592       -1.48978131596373        1.76050387287678
N           -3.34276716932520       -0.81691297076589        1.25741808009941
C           -3.30057466502926       -0.02481074903242        0.13738366624468
C           -4.52419734507099        0.21138444533322       -0.74175962000852
C           -4.20234667518225        1.30181340083617       -1.77702472651594
C           -4.89333882064970       -1.08772458016079       -1.47157050274297
N           -5.65613742175233        0.63821804983077        0.07990729138105
N           -2.19884908457691        0.53209129992385       -0.25766269106574
C           -1.02910501338346        0.38689137454325        0.43212111894883
C            0.15174722371586        1.09446342932623       -0.17448699098186
O            0.19306480973034        1.37573154699611       -1.36541002434895
N            1.13805323670420        1.39508510435289        0.69068912136688
C            2.34894265755072        2.07806558438864        0.26370837390168
C            3.55017796417285        1.15562812750760        0.20938480398422
C            4.79961424870715        1.69730904663324       -0.08817618712246
C            5.92214962445226        0.88709491235284       -0.15248280622985
C            5.82809549487821       -0.48568510101231        0.08030008433396
C            7.03954929188582       -1.36252220539351       -0.01658568965192
F            7.40674373895888       -2.14190658270500       -2.93337121927956
C            4.57661959594323       -1.01985841376890        0.38161843689287
C            3.45070896746493       -0.21101546122274        0.44570513933416
C           -1.00233188390530       -0.39683828114530        1.54754442573778
O            0.10819188416656       -0.63485610421095        2.28155621151843
C           -2.20502454990381       -1.06014407109732        2.00544057657664
O           -2.21511247494374       -1.78677132894262        2.99906076432420
H           -4.54774366360804       -2.52533982099614        1.41913005031050
H           -4.50476647931831       -1.47548504907680        2.85001618894391
H           -5.43256340629221       -0.97233439987454        1.41688385198337
H           -5.09127655338358        1.50591885164494       -2.37104090547930
H           -3.39795298867238        0.97820072858526       -2.43718355001853
H           -3.89684120632013        2.21801438228559       -1.27372023215340
H           -4.03996704391794       -1.45187103158381       -2.04347659577334
H           -5.20060707749495       -1.85863139451841       -0.76828826864721
H           -5.71910899941078       -0.89765092647270       -2.15560396528966
H           -6.48371615069068        0.68595020328954       -0.49650814903974
H           -5.48322407272688        1.56324831828409        0.44918448040715
H            1.04048946572025        1.19031686098012        1.66960467155943
H            2.54408360982901        2.90246495364543        0.95760456695328
H            2.16194849612176        2.50793866467446       -0.72810276082690
H            4.89377887000568        2.76359369696364       -0.26382765309413
H            6.88592988222117        1.33344735063839       -0.37703292929967
H            6.91565533345809       -2.26747471660240        0.57827509758044
H            7.93027281050496       -0.83375117054210        0.32343331594978
H            7.19859617832250       -1.65871062884739       -1.06693773237327
H            4.47603252628563       -2.08190962934068        0.58204396698365
H            2.48984485357457       -0.64925533750679        0.69332137066802
H           -0.14083413974132       -1.21163206221613        3.02725967109387
