43
 energy: -83.133202776578 gnorm: 0.000558472797 xtb: 6.5.1 (579679a)
C           -2.23891470278011       -2.84301920597639       -1.11164175091202
O           -2.19266105158661       -1.42309908762082       -0.82144685117195
C           -3.28422884442708       -0.81413907063488       -0.50646154683515
C           -4.24331929614299        1.32038600012750        0.48112326600216
O           -4.39979109935479       -1.21347377487056       -0.44538388556018
C           -2.97173695855435        0.74993046955252       -0.15347073320361
N           -1.89850474697949        0.70366660509981        0.78010561053106
C           -0.69118782911631        0.91842161391784        0.42591747042834
C            0.40594311376561        0.92305153862328        1.46582828450789
C            0.63841939377595        2.39349566460440        1.85367338760114
C           -0.00093681609917        0.08113176100242        2.67847223919093
N            1.60782832998216        0.36552078144320        0.84333529345472
C            2.80513210052834        0.31889172214812        1.49011041262888
O            3.05068839049663        0.85368464077937        2.55373393155675
C            3.81963796201341       -0.44705549730076        0.73114378785110
N            5.06154402939637       -0.64649733354845        1.04316350322818
N            5.59941748426924       -1.40743843728478        0.05118856363709
C            4.65303465741239       -1.62813190298535       -0.80710908050146
C            4.73008346591164       -2.40157775702583       -2.06472569372975
O            3.49888715977209       -1.04799490590615       -0.43613445853050
N           -0.32104946867520        1.25567076576467       -0.86577730390327
C           -1.20427307654865        1.45442045391937       -1.87535587282628
O           -0.93216892454128        1.78984495557991       -3.00467866854743
C           -2.62905063184427        1.27527244400970       -1.46017110041731
O           -3.52475620813948        1.55660687857504       -2.32268985887686
H           -3.24414988289653       -3.12417231267111       -1.42554035721958
H           -1.51621345657506       -3.01117977727994       -1.90661433937340
H           -1.94934380717834       -3.38334619733849       -0.21051484604177
H           -4.05896181169198        2.35391057906684        0.76512764988430
H           -4.48983444340226        0.73773891114042        1.36589027135430
H           -5.06295783392381        1.27334514581967       -0.23246236308014
H            1.35564497372927        2.45505265114538        2.66979225145263
H           -0.30433343515137        2.83386312507113        2.17317009816741
H            1.01912575899413        2.94637045878487        0.99749253124622
H           -0.16458261738926       -0.95045871696440        2.37303021458817
H            0.78677639756439        0.11607809303443        3.42941448054342
H           -0.92235396656053        0.47561169694818        3.10268558473619
H            1.47866616752690       -0.27178229591731        0.07562311044836
H            5.72971537676686       -2.81366913071937       -2.18309640590000
H            3.99825827337879       -3.20849917264513       -2.04894944971211
H            4.49687981784656       -1.75526894431984       -2.91063271022483
H            0.65778576349592        1.39933545530775       -1.08074541372768
H           -3.14815670708004        1.83950010952735       -3.18816125273043
