20
 energy: -37.645770864692 gnorm: 0.000429135509 xtb: 6.5.1 (579679a)
C            4.12742248270789       -0.04534528747798       -0.01438327875641
O            2.70301469374613        0.16688553100842       -0.05226129649052
C            1.93812535821940       -0.85567715523960        0.23578919678152
O            2.29161705509603       -1.96187451721970        0.53482882077459
C            0.47923747647030       -0.48548230290001        0.14490033498013
N           -0.53260695361881       -1.27219540721493        0.34879459368360
N           -1.61502980800139       -0.50121121177692        0.14961817355798
C           -2.93799019108134       -1.07632438133100        0.27691235288944
C           -1.24413226935766        0.72350412455536       -0.16960335296786
C           -2.07247575339657        1.89909850068413       -0.48049176406252
O            0.07167038411554        0.75557711622301       -0.17751806925216
H            4.58061282563068        0.91456096178150       -0.24931495891204
H            4.42021235657054       -0.38179407817360        0.98148374807499
H            4.40265936536542       -0.79678828355492       -0.75604692598669
H           -2.93681087014566       -1.74697725953800        1.13369120201741
H           -3.65495869682799       -0.27231938830632        0.41522207244747
H           -3.16543525347645       -1.63201063517710       -0.63244642444214
H           -2.59832919631409        1.74064312104142       -1.42407877467907
H           -2.82061490541764        2.04941381821755        0.29829004611271
H           -1.43618610028435        2.77831773439871       -0.56338669577038
