43
 energy: -83.165189520974 gnorm: 0.000596807517 xtb: 6.5.1 (579679a)
C           -5.68331079769726        0.26496300279363       -1.25164452508073
O           -4.30847354217550        0.49208899001243       -0.91162773853160
C           -4.06015025015517        0.86987131917307        0.33091851193954
O           -4.92768541734735        1.04074514059794        1.16794164565406
C           -2.61929542873458        1.06069199697637        0.62508842554002
N           -1.73540875294337        0.83624986932208       -0.40555235886543
C           -0.48165699316315        0.98407668642458       -0.17134994851568
C            0.53232259756073       -2.07864014963958       -0.68523877842295
C           -0.52966133960704       -1.98927360554937       -1.70777656745301
C            0.60392630008769       -3.29966300239450        0.14551792198057
N            1.42271407923900       -1.15974365890826       -0.48254497749818
C            1.59027747500414        0.13748169566502       -1.18129521772158
C            2.03375265337485       -0.07648302850020       -2.62865914341569
O            0.36228630822969        0.82490867354834       -1.22480507614007
C            2.66111295659617        0.90012569287897       -0.44250762931957
N            3.31876277355187        1.92055860316150       -0.86919058304605
N            4.22165506821199        2.23838532648931        0.10899812877031
C            4.05864958207741        1.38491595707253        1.06517632151244
C            4.79512505579622        1.28453573614813        2.34228579997919
O            3.07003441469902        0.50280429095500        0.78077401956139
N            0.02215487355471        1.33069133764193        1.04447142516311
C           -0.76916182351718        1.58277777221223        2.16251271049540
O           -0.26227914908430        1.88229724521665        3.22245728213416
C           -2.20265517512371        1.43290944200838        1.87980753828093
O           -3.02358598776497        1.66160080523024        2.90037062549837
H           -6.09408572275539       -0.52436106521625       -0.61861676281425
H           -5.69538376202720       -0.03875652816306       -2.29615270100837
H           -6.25927261817114        1.18244742034151       -1.11056672904269
H           -0.09439397904459       -2.24012651230290       -2.67784919073140
H           -0.95564643940529       -0.98897979243984       -1.78122833391448
H           -1.31582618348682       -2.71234032369449       -1.49820607344520
H           -0.30277500737233       -3.37282181947956        0.74994914081663
H            1.47495682960318       -3.30736129822899        0.79666947987009
H            0.62023683848197       -4.17649515734501       -0.50411381421510
H            2.12273284560987       -1.32706148882947        0.23336266138554
H            2.31444461108547        0.89058277108212       -3.04484061687265
H            2.88928587490138       -0.74651471538478       -2.65488807366891
H            1.21922535363727       -0.49487481867101       -3.21314913522437
H            4.10006274949416        1.35195243483401        3.17916324853081
H            5.52906371428384        2.08492800427024        2.40611023213117
H            5.29896786185823        0.31989510008749        2.40215037764933
H            1.01882989240509        1.37463450493960        1.18933825163073
H           -3.95987433975320        1.50658314568660        2.62873922640442
