42
 energy: -83.606145756964 gnorm: 0.000416616683 xtb: 6.5.1 (579679a)
C           -5.87546655716696        1.82297484999591        0.47522853620219
O           -4.56923960490986        1.29083963118149        0.32179085665589
C           -4.48029856416537       -0.06349886093817        0.27636500654850
O           -5.49998433961953       -0.74763730244243        0.36710794769855
C           -3.11478900182870       -0.56848568582356        0.11940685857800
C           -2.86335433722070       -1.93541102013803        0.15507391884407
O           -3.86115304584601       -2.88604742951667        0.25887597873408
C           -1.46085563213967       -2.41821543636972        0.24376149243074
O           -1.21853578438388       -3.62992003115124        0.51184839465754
N           -0.49759624156626       -1.51827556778592        0.08035596923069
C           -0.82418736641691       -0.16432495733012       -0.31144496469773
C           -0.58783980378895       -0.04634365906913       -1.84907154252856
C            0.20480708335379        0.76578565349936        0.44732377954984
C           -0.12007817002697        0.69561590080769        1.94738010843103
C            0.11945125233747        2.21327752294998       -0.03664573259555
N            1.52017722732486        0.17599853580656        0.22835984214263
C            2.71925155201867        0.78253207989676        0.25173182890026
O            2.91769038440158        1.99362444590221        0.41981050336865
C            3.81152645995648       -0.17912149599957        0.02999515841318
N            3.69196213310097       -1.46969034983367       -0.17626544934723
N            4.96093961819016       -1.96903668813595       -0.29154148272739
C            5.77003454889920       -0.96999478427040       -0.14923729631938
C            7.25134546824832       -0.99893932809244       -0.18247234303959
O            5.12203381881890        0.19272693508623        0.05763095998561
N           -2.14372313006406        0.35704677127245       -0.02115351579768
H           -6.33612676257312        1.46308172404598        1.40069463801379
H           -5.77920857315479        2.90755883656133        0.51043254247372
H           -6.51238115635150        1.53645366032913       -0.36756010692066
H           -4.72882153152186       -2.44159209721154        0.29333139894148
H            0.46540993180964       -0.19803607360968       -2.08630143934459
H           -0.90687471949847        0.92970879733921       -2.21151611613609
H           -1.17580877991345       -0.81212150899774       -2.35484685367089
H           -1.12961354978692        1.07551124780153        2.10956540160465
H           -0.07377779860312       -0.34000513929981        2.28817087584760
H            0.58388518047592        1.29254313904046        2.52673199999619
H            0.58571361183888        2.33364614789471       -1.01353831040354
H            0.60646662488268        2.89411270441791        0.66100426106379
H           -0.93480911917357        2.48665656528653       -0.11092338657157
H            1.49106189022511       -0.84551878934536        0.17187729647270
H            7.65528201165135       -0.72917362478832        0.79329328614347
H            7.59109578382135       -1.99686981456335       -0.44710581741029
H            7.62638898836992       -0.28143750440158       -0.91123248341423
