20
 energy: -38.329137399376 gnorm: 0.000681688925 xtb: 6.5.1 (579679a)
C           -2.61389983053518        1.39947458629945        0.60798618192473
O           -1.33256376480553        0.78592638278231        0.58264165682520
C           -1.30492954320751       -0.51490415185861        0.18797515194295
O           -2.33760841451619       -1.12540420584091       -0.07846358299782
C            0.09628847647032       -1.02146518418578       -0.14095211851423
C            0.23823621998925       -2.53300599134723        0.04673315828706
N            0.08608610328434       -0.59268428838669       -1.53938770940234
N            1.00496528606566        0.42412140571731       -1.60547678152989
C            1.57838916481936        0.57793186238051       -0.47339788578656
C            2.65889617628681        1.53805370219521       -0.11897698496968
O            1.12357027264030       -0.30355526077131        0.51829963474324
H           -3.06945047068046        1.39614041864157       -0.38825669036084
H           -3.27843074199725        0.87482276068269        1.30143079036289
H           -2.47226613546054        2.42590925506356        0.94437857088911
H            0.28292830240384       -2.77806727725377        1.10650570558243
H           -0.61671180446442       -3.03240116629153       -0.40545718622940
H            1.15170606416958       -2.87112147415364       -0.43813620371258
H            3.55864468094216        1.01015737906978        0.20512618059433
H            2.34742500242778        2.19539064773113        0.69570449698902
H            2.89872595616794        2.14468059952688       -0.99005538463844
