38
 energy: -79.621972001910 gnorm: 0.000887020227 xtb: 6.5.1 (579679a)
C           -6.56878278622671        0.79482560264409        1.20984886816530
O           -5.40722635660762       -0.02098663638666        1.15456917510535
C           -4.34880848758321        0.50340987786855        0.48683992543548
O           -4.42083475751826        1.61818285214618       -0.01743741595105
C           -3.17577199590924       -0.35640700570587        0.43227516540483
N           -2.13077728107071        0.21467563850438       -0.27127206379533
C           -1.02657967362895       -0.41186399815460       -0.42690588754895
C            0.10283059474906        0.19243712604321       -1.23453569296089
C            0.24739483642913       -0.57681032846492       -2.55604786493910
C           -0.17698751762677        1.67652235766952       -1.48900012407107
N            1.33654480513031        0.04911229642331       -0.44425989607296
C            2.54746691662268        0.45227402547144       -0.86972915795135
O            2.79748069990934        0.94957909143890       -1.95495155166289
C            3.58396003657410        0.21117541270801        0.17145848283970
N            3.39137995715258       -0.31988332422192        1.34074344308612
N            4.60288269547670       -0.34481784594771        1.96618518988067
C            5.45619964382336        0.17403640246572        1.13783160389331
C            6.90660451154880        0.38178740658323        1.34077496432986
O            4.87432352984785        0.54471152470118       -0.01263147001388
N           -0.82564001671807       -1.67803330656521        0.09058756511428
C           -1.77024688860444       -2.36083477237057        0.81503510528756
O           -1.51350848413740       -3.48288722873880        1.24375701489724
C           -3.08819844678091       -1.64533943335052        1.02057649559328
O           -3.97993318370016       -2.22213311342992        1.66939111950342
H           -6.93610285573955        1.01408087267699        0.20229600581041
H           -7.32419524512681        0.23927931805987        1.76434923088289
H           -6.35547854309237        1.73968148895638        1.71969476855090
H            0.50362903257101       -1.61588567237266       -2.35682815792811
H            1.02601020004710       -0.13328512176479       -3.17322758588499
H           -0.69646002486642       -0.54187557972809       -3.09838218050309
H            0.60403276725196        2.10831580818109       -2.11117793801879
H           -1.13645455221620        1.77837226439823       -1.99469566742836
H           -0.22055806920612        2.21381076523113       -0.54232654040033
H            1.26473328366985       -0.30788007294407        0.49746094462419
H            7.46763278033982       -0.11819100241723        0.55254831390944
H            7.13880491488261        1.44542989208227        1.29625469260836
H            7.20341731574879       -0.01362108610955        2.30874809331394
H            0.04721564457912       -2.15096549557727       -0.07279797311103
