16
 energy: -34.172772597788 gnorm: 0.000967118740 xtb: 6.5.1 (579679a)
C           -1.20221438438906        1.43002399245748        0.42185472092398
C           -0.62075436983573        0.06561528462263        0.03043022371962
C           -1.55430248821808       -0.68760241499762       -0.92568973399334
N           -0.40368965119643       -0.74258393761902        1.24272286385992
N            0.84170727825189       -1.00957101901962        1.33272744798960
C            1.52607069293581       -0.46910921838764        0.30404111692250
C            2.88762620191093       -0.58587694759220        0.13026381977441
O            3.72026412908089       -1.16463645867794        0.81547954461666
Cl           3.48755882610343        0.28260530634603       -1.37317873552070
O            0.66377561934219        0.22276935448162       -0.55287502561703
H           -0.51748472120282        1.93359015460903        1.10229650345407
H           -1.33948534693116        2.04549226931957       -0.46500899342376
H           -2.16079348148227        1.29217029414261        0.91722651837379
H           -1.10837239039688       -1.64628343632151       -1.18592503757726
H           -2.51359254442537       -0.85939412370876       -0.44239801822564
H           -1.70631436954735       -0.10720909965464       -1.83359121527691
