47
 energy: -80.185613898044 gnorm: 0.000624952029 xtb: 6.5.1 (579679a)
C           -0.14835027948859        3.34352333008756       -0.61901913696372
O            0.78164255350641        2.28753112806724       -0.81717698630226
C            0.98952689343615        1.44844755820231        0.28658388629846
N            2.13445549597219        1.81771083618761        1.06165931553724
C            3.38861798576805        1.87978046807962        0.29063834526328
C            3.80757509343694        0.50361659829728       -0.16186226776801
C            4.74840478381755       -0.22733015097218        0.56272736852592
C            5.08667775480652       -1.52092621483110        0.19144563370520
C            4.45266960393065       -2.07204103146374       -0.90856498859528
F            4.77864131672142       -3.32824859139208       -1.28020157977917
C            3.50928943622382       -1.38425654741980       -1.64874291290129
C            3.18925952366581       -0.08855260234658       -1.26667891153596
C            0.07090866740450        0.49768876864502        0.63921908935420
N           -1.09340894034013        0.42259868522132       -0.14642340002232
C           -2.05033523936219       -0.39702705768638        0.12689547567965
C           -3.26982027370399       -0.29714246846168       -0.79639082402575
C           -4.30546731410988        0.63288839309522       -0.14662376418866
C           -2.84271743566299        0.30415205733148       -2.14706238074255
N           -3.88042602041941       -1.60649357134726       -1.03204222130906
N           -2.03328428526950       -1.24687867732388        1.19788693399556
C           -3.12048193502087       -2.14877347043692        1.55285859794629
C           -0.84838609870494       -1.33606518187461        2.01922209524485
O           -0.81510563249237       -2.18531390315030        2.95712135630416
C            0.15861570905120       -0.45106632430633        1.70735369113774
O            1.32916179587091       -0.52601119310112        2.49535718231469
H           -0.14934427403849        3.95199257628453       -1.52601611903449
H            0.13482277936017        3.97314936967286        0.23480482012583
H           -1.15970136449982        2.95016182488158       -0.45060057834010
H            2.25708413603126        1.16133105239260        1.83249355678541
H            4.15411223569631        2.32145696877340        0.93577112103104
H            3.23235509537824        2.54183361634063       -0.56681569835270
H            5.23496308515449        0.22145666446248        1.42170766176428
H            5.82689458261058       -2.09016669164234        0.73812050975593
H            3.04573761886078       -1.85149198320917       -2.50840343036650
H            2.46209890811723        0.47323942388078       -1.84269336231219
H           -5.15301269653384        0.77395553621776       -0.81622148110808
H           -4.67352474619660        0.22068166674736        0.79179430534162
H           -3.85236463484424        1.60409457254722        0.05240981411805
H           -2.07518453906723       -0.31608281951402       -2.60924349923351
H           -3.70300101937020        0.35403103632852       -2.81314101348442
H           -2.44250353171565        1.30799341548993       -2.00793292946251
H           -3.31574771837376       -2.12884005417173       -1.69065476855605
H           -4.78536902158312       -1.47273114228326       -1.45914323299562
H           -3.13794254072879       -3.02242842316542        0.89659142485227
H           -4.08306708734838       -1.64463772905507        1.48893689914074
H           -2.96550996736778       -2.48462379762579        2.58137698620953
H            1.13054254141954       -1.16618692044962        3.19868241696617
