46
 energy: -86.348250413143 gnorm: 0.000586111835 xtb: 6.5.1 (579679a)
C           -4.83546141072192       -1.90701453679487       -2.12990804579961
O           -3.72452486646272       -1.38075521907670       -1.37862064416678
C           -3.66337729243261       -0.12687813515189       -1.12603019605017
O           -4.61675257030554        0.62753398712618       -1.56035940667597
C           -2.53302893504756        0.36280050116999       -0.37206879615029
N           -1.61750293571024       -0.58643360945010       -0.02287297304005
C           -0.55646179894782       -0.27250914649479        0.65069073663247
C            0.35214141524865       -1.43678639429009        1.02109474612499
C            0.18495722330635       -1.73297893423819        2.52015962698461
C           -0.04090506682259       -2.67284372291516        0.19901140189627
N            1.73396292326361       -1.08003975425849        0.68932844916011
C            2.78840210184969       -1.88686438239818        0.97316461359144
O            2.73881896927273       -2.90733498083181        1.63430407722090
C            4.05662451990750       -1.36998722290511        0.40724235735840
N            5.23375045702851       -1.90752937207546        0.47851878048781
N            6.08518412974239       -1.08075833891905       -0.18800240574060
C            5.37692475329455       -0.08698434740757       -0.62580509851805
C            5.83928415925317        1.08201347357714       -1.40406506488377
O            4.08276571768142       -0.20864618689808       -0.28388933074134
N           -0.32081408593011        1.01531544283098        1.04954913400349
C            0.84266146964652        1.46334794928257        1.82598856996613
C           -1.18014746237286        2.06688088630449        0.75445772121400
O           -0.92158663519838        3.19589969833708        1.13394092047482
C           -2.36924854115205        1.69105098848413       -0.01629720441967
O           -3.29461690721271        2.57122744222931       -0.37790178626303
C           -3.22712598336569        3.97323252469735       -0.04663574837077
H           -4.88044419401610       -1.41498981814585       -3.10182114008471
H           -5.75957660722141       -1.72628580590192       -1.58009646937668
H           -4.64573938762762       -2.97233095424998       -2.23773463407881
H           -0.87554223422710       -1.84488735181855        2.74011882300837
H            0.58696786067791       -0.92745463482391        3.12947895388408
H            0.69791966918480       -2.65832334980262        2.77589082252309
H            0.03411890186971       -2.45232638431433       -0.86401151825205
H           -1.06485571437339       -2.96022007416127        0.42857592036999
H            0.62634654024489       -3.49749641037972        0.44462606661129
H            1.86612832435850       -0.37353567298718       -0.01483347395048
H            5.77463969327630        1.98263099920656       -0.79332957841987
H            5.20295515216324        1.22210905361041       -2.27654503839754
H            6.86998194880658        0.93140064349174       -1.71676785976498
H            0.48165255776058        1.90601675646223        2.75397682670862
H            1.35971915312342        2.22691700630849        1.24597518363886
H            1.51061613956631        0.63824815853412        2.03447119562080
H           -4.51448730270987        1.58044147282413       -1.34436974369363
H           -4.12545641740787        4.40983990578346       -0.47860726094262
H           -2.33586159927141        4.42115708429564       -0.48632601238024
H           -3.22300483198994        4.10412976613673        1.03579750267733
