42
 energy: -82.950943860494 gnorm: 0.000797352316 xtb: 6.5.1 (579679a)
C            6.05709183902568        2.60109094855802       -0.34738839885163
O            5.08739737214160        1.80975260745172        0.33719808273307
C            4.06393983114431        1.36066867459057       -0.39857922175163
O            3.95295755287100        1.61694670969410       -1.58254247070846
C            3.09900599707741        0.52565486236336        0.34973145603563
N            2.09168574029453        0.05221281940079       -0.42534190438173
C            1.17228209553015       -0.72150830432547        0.06492381265794
C            0.09382820020142       -1.25291268217706       -0.85801270742200
C            0.34041325793044       -0.73776880565583       -2.27639449448935
C            0.05817399569659       -2.78456542491983       -0.84865684960903
N           -1.22856922726146       -0.71172375021783       -0.44822692434225
C           -1.91634608276433       -1.10418067221965        0.61397729567658
O           -1.56183183528450       -1.85553107069311        1.49696018111320
C           -3.35995213618851       -0.47726287077099        0.71511706794897
C           -4.36458008419757       -1.62229890355480        0.84834139541769
N           -3.36268216962172        0.40603740948819        1.83388209757997
N           -3.62936847648551        1.60145590920415        1.41922006584792
C           -3.81966871820598        1.55897555368543        0.09950778551984
C           -4.16445629754438        2.69712953483744       -0.76324453829502
O           -3.66415319585244        0.34867504081655       -0.38928656749287
N            1.17328647296481       -1.09154820559549        1.37428320349509
C            2.10190465195000       -0.65938642356330        2.29890318991970
O            2.01294737681691       -1.00418312336118        3.46475249858722
C            3.19588646374061        0.23428290699270        1.75151138640017
O            4.07263165023077        0.64492985641392        2.51452554241083
H            6.79249045164003        2.90959787029930        0.39351825985577
H            6.53836602034365        2.01315995625590       -1.13304746999342
H            5.58355261781221        3.47729481911471       -0.79710600930849
H            0.35338966507004        0.35103888593161       -2.28579570965097
H            1.30364798497238       -1.09935495253927       -2.63279054495842
H           -0.44286060982950       -1.09461899972010       -2.94119451595623
H            1.00654756676117       -3.16528338417636       -1.22494174056338
H           -0.10469366156716       -3.17437565459165        0.15338800007725
H           -0.74503773137710       -3.13193119077009       -1.49546309340300
H           -1.69621129053514       -0.14278744908286       -1.13497958337010
H           -4.07185768771403       -2.24726957248434        1.68962831003582
H           -5.35634601205441       -1.20894487267548        1.01378710826908
H           -4.36154112890139       -2.20745396917907       -0.06779096286114
H           -3.31168648555437        3.37486663200667       -0.83727093810380
H           -4.98986316947005        3.25553922321491       -0.32122720741893
H           -4.43371470697186        2.34796081962494       -1.75676290987568
H            0.43399290316418       -1.69238175767141        1.72027802322561
