20
 energy: -37.574718943087 gnorm: 0.000341899677 xtb: 6.5.1 (579679a)
C            4.12303967775212       -0.34085664270305       -0.23170290762330
O            2.75895309787257        0.09305363920816       -0.40893730562577
C            1.82427878817214       -0.61915036054008        0.15168390241734
O            1.93652638325289       -1.60872223014029        0.80896224523646
C            0.45367881319581        0.00426249975559       -0.14925034209971
N            0.23154121502333        1.15574999690795       -0.87098792323710
N           -1.01328899415979        1.34476254732467       -0.89638347702119
C           -1.68609281185150        0.32003425974726       -0.18406663187500
C           -2.61222522969082       -0.48541536010335       -1.10918844265649
C           -2.43684268860355        0.89498974956804        1.02821492259307
O           -0.62226556986280       -0.51047806621209        0.26565991970162
H            4.38340465291786       -0.28183365620957        0.82590190345548
H            4.73272406807255        0.33721948173432       -0.82334352939648
H            4.22357016262150       -1.36934095814771       -0.58076234057775
H           -3.03715809908374       -1.30926385290150       -0.54063881149366
H           -3.40091414806327        0.17103561650884       -1.46800019635892
H           -2.03356101500002       -0.86982534262878       -1.94631118117701
H           -2.87342944436222        0.07095924415637        1.58740935827309
H           -1.73527400122047        1.44130663610010        1.65490321833439
H           -3.21666485698251        1.56151279857495        0.66866361913088
