42
 energy: -82.931032551184 gnorm: 0.000231872926 xtb: 6.5.1 (579679a)
C           -7.37019000596861        0.02116781901481        0.33107834160233
O           -6.05327463384957        0.42954218642194       -0.04758902004382
C           -5.05856339392786       -0.39269654828846        0.28004403582235
O           -5.22869727566553       -1.43991715426631        0.86211573808436
C           -3.71366059543115        0.11425711058320       -0.13309182083528
N           -2.67916106037718       -0.65929145882912        0.24844425445212
C           -1.44015776504800       -0.26028148322536       -0.03939580831300
C           -0.33514525841976       -1.18806246566713        0.42857620665009
C           -0.52009298924577       -1.51250131566777        1.91635989773010
C           -0.36949058607246       -2.46799846458196       -0.42074501940807
N            0.92929534686649       -0.48815520415993        0.22129706636714
C            2.13292679495978       -0.99238188872211        0.52296458058693
O            2.36499018181339       -2.08840782410953        1.00111444484112
C            3.21368500786049       -0.01084057893315        0.20142816086089
N            3.00240096995641        1.21163483370948       -0.33345568249516
N            4.13167621997429        1.79374071423669       -0.47202474794108
C            5.17511278672122        0.92263290153031       -0.00303558504016
C            6.13430569406537        0.56942539177164       -1.14221780114519
C            5.89534541387100        1.55051361202912        1.19349040887296
O            4.47387820200063       -0.24755977245829        0.41908431237173
N           -1.09165617936427        0.83575973281191       -0.68139945610563
C           -2.07361820710937        1.66971675630882       -1.13460108495182
O           -1.86576510479250        2.70604919447638       -1.76846715443837
C           -3.46478541474594        1.28250788367190       -0.83327193394598
O           -4.40039089104465        2.11059371102144       -1.28358041368225
H           -8.04889503056836        0.79780680548067       -0.01510501851447
H           -7.43342848837472       -0.08137331123810        1.41713944963644
H           -7.61649024333146       -0.93500099160642       -0.13686507663790
H           -1.51527849080202       -1.92980053324138        2.06407526832386
H           -0.42274506815611       -0.60409164400127        2.50861654070466
H            0.22535857155910       -2.23483122079576        2.24278040573651
H           -1.35559607313803       -2.92222507239532       -0.33627548902635
H            0.38217537774536       -3.17268118782954       -0.07014251993269
H           -0.17484900929236       -2.22567268721002       -1.46429781047283
H            0.85400750452257        0.43411701450264       -0.20213805294226
H            6.88133019727096       -0.13018774349244       -0.77532260843218
H            6.61961073720379        1.47703597839719       -1.49175242454406
H            5.57641353569430        0.11381162732529       -1.95746236196670
H            6.62722295884901        0.84491474476599        1.57874916300157
H            6.39460187023105        2.46021166518287        0.87048075623234
H            5.17003705362265        1.78550649363431        1.96938297277198
H           -3.95244366005780        2.85301437383257       -1.74036511383663
