29
 energy: -54.515394394348 gnorm: 0.000303242879 xtb: 6.5.1 (579679a)
C            3.76590353922157       -1.20488340660239       -1.97143362902765
O            2.57824567684488       -0.78251144888696       -1.29309883063174
C            2.67979286669466        0.30727353530054       -0.54459574609577
O            3.71856909602933        0.93442851912978       -0.42235869021303
C            1.42161125483438        0.69213889287331        0.13459238863997
N            0.32009452544957       -0.09389477770965       -0.09194145724032
C           -0.79216509730178        0.20015485539120        0.49256377569025
C           -2.02671856190501       -0.64704409009118        0.26084595452903
C           -3.11288045491837        0.20785070262384       -0.41685226068956
C           -1.66769201326090       -1.84997924249841       -0.61341867422296
N           -2.48768061873112       -1.13631495934322        1.55999646761875
N           -0.90296223822775        1.27370513756142        1.32854860846341
C            0.12653174442435        2.14124251148891        1.63659991095731
O           -0.04637467576286        3.08006081089228        2.39516045890906
C            1.38035207900486        1.78855933956790        0.96173977139872
O            2.42550662390383        2.58083086104407        1.21095474086717
H            4.12820465772512       -0.40638526548789       -2.62266590543582
H            4.54092918923611       -1.45864224446494       -1.24447520675461
H            3.49430759699745       -2.08017349082886       -2.55785009573425
H           -3.38353540291398        1.04981974760296        0.21763143517737
H           -2.75491923094897        0.58611829083452       -1.37396678864107
H           -4.00091923443643       -0.39910181298321       -0.58337727185395
H           -0.90705992115793       -2.45389032367872       -0.11854346479256
H           -2.55281002611383       -2.46090521481770       -0.78208100582295
H           -1.27980723407461       -1.51360570756868       -1.57448528572615
H           -3.28519063692808       -1.73980050928527        1.41012156134849
H           -2.80700471343469       -0.36003911231113        2.12356918804619
H           -1.79031808803695        1.47469117520685        1.76368240444487
H            3.21799029778822        2.27029622704000        0.71513764679278
