20
 energy: -37.628705497537 gnorm: 0.000702796151 xtb: 6.5.1 (579679a)
C           -3.45225602890497       -1.22605305103726        0.01620756390868
O           -2.85532774918748        0.05191200092842       -0.29630045812056
C           -1.60243579937429        0.24047057622231       -0.26038408815782
C           -1.08424515056419        1.57444467076530       -0.59902821299954
O           -0.85900331140434       -0.77492024439059        0.07725607818049
C            0.48810929926053       -0.82182432856788        0.18202689044718
N            1.15127765679838       -1.87837805356016        0.49510756238532
N            2.46027828766877       -1.49954455240345        0.48780283892455
C            2.50163939554276       -0.24497544335835        0.17215786572768
C            3.68345617799358        0.62703413746653        0.03122058337967
O            1.25614849343443        0.25275619094604       -0.03884029835670
H           -4.51686449815114       -1.10406936497186       -0.16777210104119
H           -3.02122109278704       -1.99028572164449       -0.63025166947671
H           -3.25489212460544       -1.46192172809881        1.06200843322736
H           -0.52980018800457        1.97671999774879        0.25102693640610
H           -1.90821062777677        2.23456125075781       -0.86157065759935
H           -0.37942148972357        1.49255773058802       -1.42814348828723
H            3.74605749242120        1.00443046852483       -0.98969628385990
H            3.59395217217345        1.48329207439601        0.69959773366373
H            4.58275908519138        0.06379338968825        0.27036577164745
