46
 energy: -86.370674764928 gnorm: 0.000327675257 xtb: 6.5.1 (579679a)
C           -5.31275581925047       -0.38090597881047        3.17734047041116
O           -4.26771050642484       -0.39435082380928        2.19704655945627
C           -4.43226823683942        0.39147334301497        1.14400471370586
O           -5.41144874512896        1.09883281624136        0.98378921852302
C           -3.31678848303367        0.33951195571344        0.17086012249976
N           -2.25678507549241       -0.47200240020934        0.46068999221018
C           -1.25375935356515       -0.55748462472784       -0.34971217402089
C           -0.14912293572996       -1.50829720681219        0.08896599755199
C           -0.25662146579558       -1.75126663130097        1.60099814563566
C           -0.25360105210079       -2.84265301229547       -0.65546647958123
N            1.17895746097919       -0.92829985274353       -0.17152238977178
C            1.49359357930891        0.30527004001894        0.23192080324430
O            0.74563305234064        1.12393319402588        0.72714519337745
C            2.93782605435867        0.63610858767673       -0.02526429241146
O            3.76629710831578       -0.20113102757745       -0.63088199776084
C            4.95423772702061        0.42639633306659       -0.69245513694804
C            6.11956772267038       -0.23074453588082       -1.30541783080412
N            4.88260396395784        1.60778420879633       -0.15171346263775
N            3.60796908285189        1.72702734311036        0.26286399583697
C            3.19878191216634        2.94244719856849        0.93645134027633
N           -1.22170260633272        0.12033100176281       -1.53925446396599
C           -0.13610651320285        0.03103052056401       -2.51402072666319
C           -2.22224420914422        1.02245076469235       -1.91053163241625
O           -2.12974692411453        1.65907745772957       -2.94811373772180
C           -3.33915648267965        1.09977480063325       -0.97116229522191
O           -4.32818733424374        1.92932827270862       -1.30395464968927
H           -6.26095715662621       -0.66647568975836        2.71605342640532
H           -5.02880473715212       -1.10079695152958        3.94207412689788
H           -5.40474073713940        0.61832657310173        3.60894366768840
H           -0.23442961425421       -0.80349305719379        2.13614177885712
H           -1.19285843470644       -2.26019422660268        1.82289742081773
H            0.57672617626983       -2.36960171412989        1.92688180242860
H            0.52159223063856       -3.51981101120353       -0.30173262087205
H           -0.14068230974726       -2.71393706792369       -1.72919337753626
H           -1.22816066944801       -3.28671430159715       -0.45634052737001
H            1.90576049368471       -1.54224006299193       -0.49813541755913
H            5.85144693240930       -0.60652332449655       -2.29285983775115
H            6.94692225493870        0.47117108740161       -1.38029429914943
H            6.41652395269232       -1.08513078075645       -0.69485948451199
H            3.49410637076132        3.78873318859200        0.31848522155166
H            3.71484792023550        2.98961529380261        1.89486501891934
H            2.12156721176750        2.91989015659259        1.08114341820429
H            0.42583319893302       -0.88354387064478       -2.38236771595719
H           -0.57476979145954        0.05065822994893       -3.51231024732567
H            0.52473188054521        0.88980501431050       -2.39747190127811
H           -5.03211709323607        1.91662077092164       -0.61452573558083
