33
 energy: -57.777603896205 gnorm: 0.000744357160 xtb: 6.5.1 (579679a)
C            4.03265632439673       -1.56279849136133       -1.43861781822435
O            3.27562079355124       -0.91984503045892       -0.39527359367787
C            3.45536660888405       -1.33757125059708        0.84008748500818
C            2.61744276751208       -0.56161219278027        1.83105199880512
O            4.20034953139732       -2.21071482037967        1.19345784505856
C            0.78232668524606        0.59865183145623        0.68947034183787
N           -0.30405876825607       -0.10193226818591        0.63060766237026
C           -1.35251662416676        0.43551622035223        0.06216157384837
C           -2.65124606553879       -0.31920196339099       -0.05173282065587
C           -3.08740544831418       -0.36860690432130       -1.52830083923850
C           -3.71481026108779        0.37611271753917        0.81052192754458
N           -2.42553803041120       -1.65379266680036        0.47027645960096
N           -1.23825473951843        1.70177811832377       -0.42061967320013
C           -0.10368102520962        2.48280326846653       -0.37261779151973
O           -0.03411861236343        3.60701488617214       -0.81057600851238
C            1.06627157184584        1.83027736137933        0.27075455860724
O            2.21336287051451        2.48190758679615        0.36787319960360
H            3.57519480087312       -2.52488280664366       -1.67471840950795
H            5.06401005902630       -1.70940621448518       -1.11281178823561
H            3.98889676847518       -0.90040907163252       -2.29996176748982
H            1.74443548208075       -0.05762770107256        1.24755284715991
H            2.16081922744250       -1.19801266340009        2.58384284061525
H            3.17532467814695        0.25849731183988        2.27859499714019
H           -2.30835473664957       -0.82819049291464       -2.13365567348392
H           -3.99485532153946       -0.96435654407931       -1.60744250929084
H           -3.28922495634585        0.63259129335415       -1.90435688957942
H           -3.40518854124796        0.36950999326141        1.85474884489738
H           -3.85963406604707        1.40384081405424        0.48411461685243
H           -4.65694157530325       -0.16075516146677        0.71531801407680
H           -1.75533219994797       -2.13455068666724       -0.11531022188534
H           -3.29488215008245       -2.16996655882018        0.44291818165655
H           -2.03179771423905        2.14055858156271       -0.86938797467191
H            2.15576466687470        3.36517450492206       -0.03797061549813
