42
 energy: -83.632479289002 gnorm: 0.000551981420 xtb: 6.5.1 (579679a)
C           -6.18929275840186       -0.32086097322082       -0.10881231693082
O           -4.88073370413837       -0.47041138414216        0.39902819012135
C           -3.88644607673479        0.26593336763460       -0.30676455900662
O           -4.26655847021516        0.99521136597080       -1.24888853035610
C           -2.59086013474180        0.06322203893141        0.16503147316069
N           -1.58659889498568        0.77281122929470       -0.47219485685076
C           -0.36131738261699        0.64344934493081       -0.07940653819923
C            0.69322622126915        1.45675906061494       -0.83423121660644
C            0.42845300642908        1.38072374634350       -2.34327966204525
C            0.64856720000396        2.91730778519832       -0.35339780933294
N            1.99637779272386        0.87087760086612       -0.51701961529292
C            3.16783768205855        1.27969356916494       -1.01186853798168
O            3.32646843008789        2.20878264340064       -1.80917318252767
C            4.32485189161465        0.49054810883778       -0.52619571940106
N            5.58525830781174        0.67825941714060       -0.81421654637305
N            6.28804575526339       -0.29215414344832       -0.15626225883734
C            5.42253143747096       -1.00925537714926        0.48839981338366
C            5.69024242188464       -2.18657602540266        1.34600889871165
O            4.16395419611634       -0.57305047401743        0.30241280496671
N            0.11532609892397       -0.10437391669321        0.96302275946946
C           -0.73245775306186       -0.82364322739083        1.69103223527339
O           -0.35989341113700       -1.51249459691732        2.66530937874577
C           -2.25084676721073       -0.87382368658823        1.30791536992178
C           -2.54639919373183       -2.34973330353224        0.95018053512170
O           -2.98155484571648       -0.53284731651467        2.50420882706818
H           -6.53863243608831        0.71666108450526       -0.02305422470379
H           -6.24540048034942       -0.61652492683887       -1.16475575877669
H           -6.84597277066871       -0.96735463945228        0.47569165574915
H            1.08705543761902        2.04890588775095       -2.89648017254410
H           -0.60802439223697        1.66491541543321       -2.52926124820128
H            0.57945338433548        0.36073042281496       -2.69675817871666
H            1.36872979851784        3.52989424486657       -0.89500130938169
H           -0.35213063751430        3.31573429098475       -0.52002626574487
H            0.87449467217429        2.96493162407097        0.71185196946095
H            1.96214829218101        0.13961687379015        0.19583644149099
H            5.12997393676735       -3.04963366027068        0.98587212991832
H            6.75352662709342       -2.41171699390018        1.32825991964140
H            5.38095115139240       -1.98558480773129        2.37224580315217
H           -3.60851592488323       -2.49995672466506        0.76572247651084
H           -1.99014535339481       -2.62869473253040        0.05508383721756
H           -2.23942761613881       -2.99280722935614        1.77633571993715
H           -3.92626273778843       -0.56347498277799        2.29915726879087
