33
 energy: -57.815995955198 gnorm: 0.000865565765 xtb: 6.5.1 (579679a)
C            4.04409260464989       -0.67870614854570        0.41295382613284
O            2.66824120889073       -0.20986457310500        0.27497574686648
C            2.39752549822810        1.02676446223988        1.00544811888901
C            2.19307590895000       -0.26272409212245       -1.13563611103620
O            3.03190595890079       -0.40309403912379       -1.97089295345475
C            0.76735316617332       -0.21256662451479       -1.28649938832303
N           -0.01566049231942       -0.11368761102632       -0.16037140179403
C           -1.30219415288674       -0.11167824405269       -0.30077336173935
C           -2.21087926592008        0.03870335950272        0.89736681951702
C           -1.67450486494132       -0.79750065569374        2.06649741840698
C           -2.24468982940289        1.52803895480198        1.26828911612712
N           -3.54725433714480       -0.38413506224220        0.49856030992404
N           -1.90270118018606       -0.19274312108401       -1.51402905682652
C           -1.25110127552121       -0.29678612372078       -2.71887447404552
O           -1.84164206098608       -0.36996906427191       -3.77511130045568
C            0.22132589147898       -0.30652934652396       -2.55843325232460
O            0.91404648590819       -0.41781597802362       -3.67318908531079
H            4.09757389569176       -1.64157450668741       -0.08894217335662
H            4.22590895384683       -0.78181126693094        1.47911099970775
H            4.72189452043544        0.04198793874976       -0.04258271271030
H            2.97474258143242        1.84042965836474        0.56814640063965
H            1.32688930983703        1.20292773147799        0.93466491949321
H            2.68832436713296        0.84132060288690        2.03617460557250
H           -0.66821502007793       -0.46977963479601        2.32327711366005
H           -2.32346521858733       -0.67593457246895        2.93177201223617
H           -1.64162233565535       -1.85048475129383        1.79061945976565
H           -1.23616215053462        1.87862383600154        1.48226613194356
H           -2.86444251037068        1.67142147656255        2.15190637236335
H           -2.65650056047816        2.10995303189607        0.44465960076317
H           -4.23140034996290        0.02082733609823        1.12291911138258
H           -3.61924975466386       -1.39021345140218        0.57486909649762
H           -2.92222012069013       -0.19416130039403       -1.50234130407922
H            1.88100412876974       -0.43924022056224       -3.53680260445078
