47
 energy: -80.192354271610 gnorm: 0.000389555090 xtb: 6.5.1 (579679a)
C            4.32086697726620        1.09144398433997       -1.19764502766826
C            4.76573309635751       -0.35273573123050       -0.82741049856437
C            5.71709267325236       -0.31251133536509        0.35012680926830
C            5.32501666105892       -0.75891915969738        1.56521578598343
F            6.20437061623697       -0.62183305828200        2.60642718912913
C            4.11114966786005       -1.40254049058787        1.84705658839062
C            3.26949530640407       -1.64606756392149        0.74562241506738
C            3.56656494421004       -1.23661150285277       -0.52498165696922
C            2.65054189393356       -1.58065526996635       -1.67360721867731
N            1.44904410863305       -0.72648988321954       -1.66590073829678
C            0.31830854133106       -1.12200251998401       -1.04207169053758
O            0.13406003638557       -2.28865833066300       -0.68037443822202
C           -0.73036987077484       -0.08125633386333       -0.84242254912690
N           -1.82219532928940       -0.52820156540710       -0.14227199032852
C           -2.83359065510138        0.22790791717724        0.13126790724945
C           -3.93541324040738       -0.40268417545555        0.97817672609536
C           -3.91095434964103        0.20540607053400        2.38778677747242
C           -3.69205248729172       -1.91792388299990        1.07802368724557
N           -5.24702737631191       -0.15938179153080        0.37560875211237
N           -2.88299793340194        1.54313886148565       -0.27470527829342
C           -3.97445005588392        2.47098109315701        0.01404872337309
C           -1.82907484816295        2.09994257854862       -0.99285964810135
O           -1.85008167902122        3.28297705969597       -1.36150700061268
C           -0.72544039325469        1.22691985929011       -1.27330143371097
O            0.28889637386179        1.79961558489485       -1.97941244688832
H            3.71877877135601        1.08196544563872       -2.10621363396116
H            3.73220665353606        1.52265805247968       -0.38753842976329
H            5.19576349258411        1.71969152314160       -1.36822077433361
H            5.29787933744490       -0.74280226102872       -1.71615719353428
H            6.68393735385362        0.15387572178477        0.20597610692962
H            3.88061176995829       -1.75826590746641        2.84116544285239
H            2.36241259349798       -2.22571380646955        0.91188937049334
H            3.15282860798417       -1.43457968228222       -2.63668085342148
H            2.30775602576673       -2.62129356933765       -1.61849591266550
H            1.60860017269786        0.25460532409635       -1.83215727430378
H           -2.91904804748905        0.09380268342919        2.82560104396932
H           -4.16817465318658        1.26222465270355        2.36363652728549
H           -4.63259218138732       -0.30905134218916        3.02079774670881
H           -2.73877469760102       -2.12109691237949        1.56571137364081
H           -4.49328551650006       -2.37392776698513        1.65680898198008
H           -3.67824716451709       -2.36183217197087        0.08323388568810
H           -5.96541558738870       -0.47470906987933        1.01088467986958
H           -5.33801281319801       -0.69330673716456       -0.47843382135612
H           -4.10026494755977        3.12853026780701       -0.84721546939641
H           -4.89686374021864        1.92583541144186        0.19190309798741
H           -3.72133919654783        3.07708110383794        0.88558965531774
H            0.02375408866910        2.71785962668968       -2.17297329538115
