43
 energy: -83.877023473373 gnorm: 0.000344405045 xtb: 6.5.1 (579679a)
C           -3.09437707482672       -2.25967699981305       -1.68119062540708
O           -2.62427108959632       -1.14403984940802       -0.93128443805385
C           -3.55683059842809       -0.40389588301533       -0.30991093797517
O           -4.74425424400935       -0.66300061274022       -0.39120480221122
C           -2.96422035461928        0.68107312422336        0.60030643897165
C           -4.00577338366180        1.78955775727011        0.80598897530269
N           -1.77254750925737        1.26794606676146       -0.01000289844602
C           -0.62190751071649        0.81300675055098        0.31486184657808
C            0.60343773430283        1.48733780377697       -0.29585107181716
C            1.07979950774984        2.56894867164512        0.67897132851782
C            0.26258889183964        2.10495292073466       -1.65499867837261
N            1.69663983712296        0.51985540976210       -0.43677940758439
C            1.62958307886380       -0.56904232813440       -1.22621976605592
O            0.65808701477853       -0.91701063547704       -1.87890529689343
C            2.89154476371438       -1.35720708677992       -1.22133282843122
N            3.12855760958811       -2.47403960523450       -1.83856109139849
N            4.41118616063419       -2.82806721707041       -1.53390524236081
C            4.87633851270040       -1.90648370676938       -0.75093552266393
C            6.22192972248020       -1.82492639784045       -0.14207336374685
O            3.96670034235582       -0.94666134612406       -0.51212770573545
N           -0.38865217060722       -0.18587609429721        1.20320006757564
C           -1.40548955512203       -0.51668068395503        2.19334504370313
O           -1.02433727876898       -1.13825486076452        3.22538061056020
C           -2.64409756496388       -0.05539916102606        1.87556345212405
O           -3.73667954283319       -0.26269275762214        2.75701131748951
H           -2.22155589011346       -2.74106907547100       -2.12043319219273
H           -3.77451191624960       -1.92985542083040       -2.47198965186745
H           -3.62351829398203       -2.96437142969050       -1.03252574822337
H           -4.93334348979638        1.36633750569957        1.18985370440506
H           -4.20501824702804        2.29151620308865       -0.14046140637104
H           -3.62452379880026        2.51954728867668        1.51827489084143
H            1.34100177403753        2.12332288803582        1.63777057924731
H            0.28370088977685        3.29611383660737        0.83329942641752
H            1.95233983876398        3.08180547069160        0.27859478548083
H            1.14177971829436        2.58711495014633       -2.07801708926254
H           -0.52453111727353        2.84577233321976       -1.51968948276766
H           -0.09435042796589        1.33969860123010       -2.34331889841144
H            2.57544698696257        0.74604885329034       -0.00605994316284
H            6.72060229427158       -0.91107559939024       -0.46387323585570
H            6.81307775687024       -2.68709534578335       -0.44046413714466
H            6.13832207162370       -1.79632373173417        0.94406301177448
H            0.55688703616597       -0.31542880109669        1.52541721471585
H           -3.36476148427255       -0.63178280534063        3.57001176870032
