42
 energy: -83.592410939416 gnorm: 0.000699894594 xtb: 6.5.1 (579679a)
C           -2.37807085790295        3.79362172434052        0.62041253015276
O           -2.03987008660828        2.69067933396466       -0.19543886389126
C           -2.04289881627479        1.46146349569018        0.43863713309643
O           -2.29379975283190        1.41757056143728        1.65175034068959
C           -1.77209424566625        0.34366619959186       -0.40319575713487
C           -1.52462870648572        0.40647405963107       -1.78888850818808
O           -1.46274087859489        1.44686548345324       -2.48699652437635
C           -1.26218371656495       -0.92847362304604       -2.46898506950678
O           -1.34419733179106       -1.09867114294808       -3.70268396055035
N           -0.85742758968363       -1.93383926092939       -1.66510123247460
C           -1.04934050505886       -2.01888534748285       -0.25306936341019
C            0.23122833405151       -2.34213225648542        0.51163732949910
C           -0.04565202599623       -2.36486351906522        2.01426059382839
C            0.76902120020403       -3.71537056568370        0.07390452386296
N            1.27679148328518       -1.35396877636515        0.15371801493649
C            1.76964412532004       -0.32498965178768        0.88667842182914
O            1.78436675216667       -0.25427494561324        2.12882766230671
C            2.35372920794529        0.69857444769647        0.02066134982690
N            2.28081108608633        0.74382682720139       -1.29265652231421
N            3.01308520974928        1.83140896663943       -1.68976342180006
C            3.48612618436587        2.37673537712944       -0.61788407726034
C            4.34993877639623        3.57848422434217       -0.52800668983429
O            3.11515579557283        1.72416164127433        0.50332966225077
N           -1.82145352902404       -0.93251475374257        0.29264398236306
C           -3.21278104601411       -1.36140767217437        0.54026079850833
H           -3.39327927839011        3.69289280917878        1.02231904261586
H           -2.32589894724325        4.68772021593124       -0.00227764024089
H           -1.68378523375513        3.89817787314823        1.46290955534795
H           -0.66027158720272       -2.80311255645803       -2.13502859844839
H            0.86434811747450       -2.56236249093896        2.57949310846287
H           -0.47471964215660       -1.41807629952730        2.34515198656290
H           -0.76238916949384       -3.16032805970383        2.22021353150437
H            1.05156333396249       -3.70047985340553       -0.97820556642799
H            1.64671854293238       -3.98750578378949        0.66041800431693
H           -0.00161400170142       -4.47123386140210        0.21799657737851
H            1.39047778594403       -1.26747945426132       -0.85177913415872
H            5.35001903034490        3.30094453172544       -0.19427472134723
H            4.42092538527506        4.04931090649152       -1.50543929390161
H            3.94016967644110        4.28738878482331        0.19101303862337
H           -3.78085741338589       -1.47107984717860       -0.39430394276093
H           -3.18841641861973       -2.32593827544584        1.04866327766910
H           -3.71574624705232       -0.63297846625118        1.18005942238126
