46
 energy: -86.344162878361 gnorm: 0.000481354311 xtb: 6.5.1 (579679a)
C           -4.43991854015317        3.65785822184603       -0.07206704785439
O           -3.47919993207346        2.58967707847277        0.03354289018212
C           -3.78354109046785        1.41461403696186       -0.37350857941728
O           -4.96061078079247        1.22757388524601       -0.86894094912729
C           -2.78987916575860        0.37304933928718       -0.25211387840239
N           -1.60569364895167        0.76713202395979        0.29875184426422
C           -0.63469352983486       -0.07450801491788        0.46184851013299
C            0.61368820000577        0.48409020865080        1.13109377776191
C            0.69387828401578       -0.05845622801612        2.56668242513409
C            0.53599413480726        2.01734294795344        1.16200779762404
N            1.77986465059138        0.09712574497478        0.33349110644223
C            3.05635253617879        0.37309013164018        0.71076930948661
O            3.39840739351923        0.79884262055426        1.79564499061951
C            3.99876115912157        0.04960406258865       -0.38719321162898
N            3.67424669705318       -0.35366056213028       -1.57976823970399
N            4.83750545610632       -0.52819643871886       -2.26438080959802
C            5.79937220325329       -0.21964608178231       -1.44576859718331
C            7.25457479409901       -0.24533919585961       -1.71069244054843
O            5.33150471665733        0.15520767771069       -0.24644603794694
N           -0.76119122189698       -1.38822293736129        0.09967704483132
C            0.27149426546597       -2.41785448269012        0.27718044381240
C           -1.91847745398537       -1.90702317774581       -0.46824920164073
O           -1.98170795491149       -3.08795395726871       -0.76369987528326
C           -2.99953563112049       -0.93451082381795       -0.65657870674433
O           -4.17114314029745       -1.26130737766477       -1.18881839586972
C           -4.49944244478655       -2.59618013992958       -1.62556127934995
H           -3.94097626528611        4.54632298824325        0.30741621183793
H           -5.31747969004297        3.41398145154995        0.52728876650245
H           -4.72734030399729        3.78350029556946       -1.11617472714386
H            0.89945156873351       -1.12580899538367        2.57753722924614
H            1.48017932841965        0.45682736726707        3.11510969287135
H           -0.25808132430177        0.12173570692572        3.06353903428788
H            1.44265603311932        2.41400127035746        1.61603232037951
H           -0.32559103279933        2.33293354858555        1.74656159416717
H            0.43855174759678        2.40749736690575        0.15077394173750
H            1.62615681661453       -0.07695018820788       -0.64868958671737
H            7.66044180161227        0.76501061217776       -1.65681868060811
H            7.75794981067916       -0.85187657315374       -0.95861339943775
H            7.43922394394574       -0.65779043114365       -2.69943359558233
H            1.18719121285616       -1.98580594288143        0.65965904267553
H           -0.11294918629105       -3.16987081179248        0.96613675758751
H            0.45373046940299       -2.88373948590496       -0.69129364766391
H           -5.13549703177044        0.30699612993625       -1.16533906303308
H           -3.81533973952179       -2.91512312159057       -2.41214288354403
H           -4.45777753206203       -3.28760161422883       -0.78340766572288
H           -5.51510958274878       -2.52658713517560       -2.00996923183129
