43
 energy: -83.824498681583 gnorm: 0.000418289604 xtb: 6.5.1 (579679a)
C           -2.43311365646161        3.18067999600509        2.03286020433493
O           -2.10008105571052        1.95071891507170        1.41320799053344
C           -3.13337248353628        1.38876464838755        0.63563720509747
O           -4.21919383147564        1.99105540998044        0.56744104176748
C           -2.80881495819029        0.17829467894909        0.01914334285141
C           -3.68411221886207       -0.51915520504393       -0.91931588496673
O           -5.05341817475092       -0.58817697941908       -0.64689601663231
C           -3.17439877537614       -1.17596972284121       -1.99676876741624
O           -3.71647448806352       -1.87573015221852       -2.88947411838628
N           -1.69124130605673       -1.03238727172411       -2.08504110212813
C           -0.94877646793868       -0.95829108369934       -0.97099086878208
C            0.43925529765384       -1.59798393921774       -1.01364640144357
C            0.29277947620099       -3.04963481522103       -0.52995449963524
C            1.01205174862505       -1.58856053884872       -2.44175023010344
N            1.34706051683054       -0.80860555229812       -0.17864243784316
C            2.59587822850033       -1.27030159152153        0.19298603747144
O            2.93040117712286       -2.45574848601722        0.20148279204757
C            3.48147868797420       -0.20696064229417        0.64112115623953
N            4.71527612124449       -0.32937318163939        1.07916795977162
N            5.16516928239280        0.93178856997450        1.33839908296772
C            4.20218854174117        1.74766397851825        1.04971855711703
C            4.21209760320960        3.22430087065158        1.16972238658142
O            3.10200774949370        1.10587548241395        0.60431483611549
N           -1.48192218156287       -0.38511743250030        0.08756688763922
C           -0.85047437527481       -0.41499170004204        1.40827005323756
H           -2.64180986234483        3.95664656409613        1.28597900090829
H           -1.57521366210546        3.48156397401683        2.63493861877091
H           -3.31114953910822        3.07452297710561        2.68186122282867
H           -5.45668059563788       -1.11179859105793       -1.35280294747432
H           -1.31613882286996       -1.55017116156210       -2.86390367520144
H           -0.58528495271611       -3.48961472350311       -1.00174426735000
H            1.16587640278260       -3.63349028409101       -0.81161267607631
H            0.17624922804566       -3.09679924959064        0.55081562816270
H            2.05686087928962       -1.89247384702196       -2.39810834392090
H            0.95602269229458       -0.58988512132543       -2.87104909450855
H            0.48338494801890       -2.28963620473874       -3.08431015143852
H            1.31641938137057        0.18181152070593       -0.37840784864293
H            3.59494204951370        3.53873462892513        2.01196394830514
H            5.23108318131844        3.56835175096344        1.33063946417160
H            3.80921902194241        3.67846679384946        0.26558063546801
H           -1.63053350684734       -0.34148014555286        2.16411796306795
H           -0.16204210011497        0.42147274127260        1.51937510342313
H           -0.31145720055762       -1.34837587789762        1.54811021307044
