13
 energy: -19.065293066386 gnorm: 0.000571960333 xtb: 6.5.1 (579679a)
C            2.02692066008038       -0.16924181538902       -0.02696029692694
O            0.72891320486284        0.42020698452544       -0.33372818066966
B           -0.57917783752817       -0.20420925591606       -0.07153825834477
C           -1.82756151430115        0.59112377778516       -0.52891337195878
O           -0.44728724599925       -1.38551463569210        0.51900499221763
H            1.83117585534716       -1.05417282884474        0.57392755443548
H            2.60787249661052        0.56066392830738        0.53408490705166
H            2.51862646852107       -0.43456996743389       -0.96216212806759
H            0.78288206271315        1.26163096827887       -0.80576523890626
H           -2.66350631862804        0.43725093959148        0.15095121408040
H           -2.14579890280809        0.24523747215804       -1.51336010499687
H           -1.63095410059793        1.65758427390676       -0.60463094072939
H           -1.20210482827246       -1.92599084127751        0.75197385281533
