42
 energy: -82.982700094569 gnorm: 0.000393049676 xtb: 6.5.1 (579679a)
C           -2.35131491166628        2.19757646935924        3.15484776618651
O           -2.19270075468917        1.23675114761680        2.10170396726993
C           -3.05477815613755        1.31029317665358        1.10019461512554
O           -3.94128101222281        2.11987977497793        1.01896569402625
C           -2.78273452847128        0.25032989017622        0.04974407257523
C           -3.91709834979974       -0.24169518322062       -0.78426685355956
O           -5.07394938419610       -0.12464289597140       -0.47210154103082
C           -3.49052153418828       -0.95640965946396       -2.06822662893112
O           -4.25637023508528       -1.17309437135989       -2.98471022800049
N           -2.18841805381731       -1.30966203481861       -2.10147819292546
C           -1.21550135546108       -1.15971593560589       -1.03781562862526
C           -1.09879141367980       -2.48890613837055       -0.27414493707560
C            0.14612303133994       -0.69048995573391       -1.64792779211098
C           -0.07266629007962        0.60331461922630       -2.44129217397807
C            0.78314808508406       -1.77024925055714       -2.52430794610575
N            1.00852084137934       -0.41464678094603       -0.49969694245423
C            2.29358161199310       -0.01171543853384       -0.60485447978674
O            2.93428314292566        0.06882204008960       -1.63695958248774
C            2.85003018437191        0.30864671292960        0.73499506368329
N            2.21436029587837        0.23777239075390        1.86601998832540
N            3.09257317591887        0.62065827167643        2.83453219413876
C            4.20829136553135        0.90274257794923        2.23198934386281
C            5.47437644594425        1.36511237273719        2.84177313961453
O            4.11752189542499        0.72545793663546        0.90568525528965
N           -1.58662763645966       -0.17169618850484       -0.07421816287324
H           -2.13604613653148        3.19902704908124        2.77678903096915
H           -1.64269966929392        1.92388329177573        3.93288894461549
H           -3.37309960486933        2.16391778015833        3.53871408670624
H           -1.91229784504789       -1.87908899774264       -2.88698261710805
H           -0.28442107791765       -2.43668443574263        0.44470670539035
H           -2.03251573256062       -2.67931505260058        0.25160565692578
H           -0.91542105835093       -3.29847100717726       -0.97567053105028
H           -0.51099732487226        1.36564815888269       -1.79857882220549
H           -0.74059632599849        0.41524958252850       -3.27965250291642
H            0.88119395228518        0.96317044451530       -2.82333693854140
H            1.66013790861239       -1.36359402911755       -3.02553355348393
H            1.09251618383337       -2.62195824637609       -1.92192180042649
H            0.08057003833969       -2.10660435907447       -3.28363717404242
H            0.55116816577641       -0.29627457858387        0.39616332793223
H            6.26266260623284        0.63508118182167        2.65819069634482
H            5.77964422179842        2.31090835311546        2.39491328070461
H            5.34014423872507        1.49264131684497        3.91289720002768
