42
 energy: -83.632617935819 gnorm: 0.000687050967 xtb: 6.5.1 (579679a)
C           -6.29336858238487        0.90370524284665        0.70079391012703
O           -5.13447994665583        0.46369110676147        0.02691456185072
C           -3.96539986744615        0.41940768512623        0.82597330654871
O           -4.07543084261761        0.76939440673182        2.02286342881342
C           -2.80329461271345        0.00819979424858        0.17236652373004
N           -1.66724763202961       -0.04946059484540        0.98233426151040
C           -0.50655936480756       -0.16476337962471        0.42044679686665
C            0.69909067765008       -0.32152803563939        1.35045140205696
C            0.68114685392695       -1.72694075933238        1.97115605019080
C            0.65120695695637        0.74500692186804        2.45392311277853
N            1.89660445354947       -0.14880117324109        0.53150455144510
C            3.15894312478082       -0.17086214114728        0.96458351611238
O            3.52247346205081       -0.37862103194047        2.12265341911468
C            4.11253133065356        0.10106241534327       -0.14176030217520
N            3.80201249897881        0.33271734955819       -1.38688881048769
N            4.97522477821598        0.55350017416677       -2.05203369914912
C            5.92293760358833        0.44486806837972       -1.17690831445953
C            7.37734005993261        0.60692297690424       -1.40097165389321
O            5.45201085558198        0.15942253421310        0.04966764646817
N           -0.22453188336036       -0.02697521209761       -0.90918990236628
C           -1.23997701936728       -0.00569547038029       -1.76498351829857
O           -1.12541406526972        0.37325186501398       -2.95249310859447
C           -2.63555019737463       -0.49386021318310       -1.24516856633820
C           -3.71392654015787       -0.06655232502768       -2.24672391148113
O           -2.55843598227869       -1.95202346571227       -1.26291718078332
H           -7.11438272847938        0.89611019712159       -0.01859772341357
H           -6.54700338663573        0.24194255203307        1.53921609617714
H           -6.17036023291244        1.92234228608800        1.09237861987141
H           -0.25918637230039       -1.86248383762933        2.50489185013123
H            1.50761648341847       -1.85772065395163        2.66884860965764
H            0.75440446629677       -2.48363678088324        1.19011494401849
H            1.43359214254337        0.58195086902752        3.19391120897818
H            0.77525276829906        1.73791635573642        2.02146081961331
H           -0.32170359154539        0.69406103717887        2.94425929095948
H            1.69655953525689        0.02405664509704       -0.45985004716997
H            7.90719389893873       -0.29959766502202       -1.11078544726474
H            7.56296728602398        0.81499648727641       -2.45152806631686
H            7.76030640131316        1.42858754010489       -0.79637656351963
H           -3.87874999360317        1.00935965851307       -2.19871739468580
H           -4.65206608800226       -0.58205360273171       -2.05116844431657
H           -3.38959141720481       -0.32646825013015       -3.25632959106757
H           -3.37275829082065       -2.31442757682484       -0.90071468123585
