42
 energy: -82.934321995155 gnorm: 0.000786547208 xtb: 6.5.1 (579679a)
C            6.48381142636148       -0.67649402509449        0.99117885403128
C            5.76317312604736        0.02364812419234       -0.09502524292540
N            6.27433244378362        0.68942755014704       -1.08329107515225
N            5.22796215529539        1.16469589162859       -1.81808296552233
C            4.14349222899655        0.75747565355269       -1.23404232942716
C            2.73792607232236        1.03077301255168       -1.64388743577952
O            2.48366474852631        1.73679987523779       -2.61126049035093
N            1.83782354460703        0.44106790426118       -0.84804680947472
C            0.39262372335861        0.55548671726950       -1.01537322579165
C           -0.03842034362202        2.02216360203119       -0.89693130990081
C           -0.02804812171097       -0.03058036242240       -2.37180485109777
C           -0.26093393996644       -0.26740270934715        0.08604066930434
N           -1.55812496142664       -0.08490352724903        0.23677425926150
C           -2.17396243414956       -0.83141095218770        1.20610815191859
C           -3.55460354031592       -0.64303480850550        1.46805249345808
O           -4.28453079808277       -1.15316133702836        2.26387231531206
O           -4.19472206129409        0.47001293770710        0.62949611477694
C           -5.45496587492802        0.91110604281783        1.19656733080895
C           -4.26127156508622        0.20279393902277       -0.79817017197438
C           -1.45754440046107       -1.74872539968980        1.97164847472955
O           -1.99028832199444       -2.50341200698355        2.92608505268379
C            0.00203861301729       -1.89932643930374        1.73678417171959
O            0.67972562743852       -2.69482855286719        2.38587859467331
N            0.51549891658896       -1.09933724331270        0.76460123712629
O            4.42089318085968        0.02657749047517       -0.13221221742599
H            6.22361999514781       -0.23601314928157        1.95367373846572
H            6.19877783269884       -1.72794740535294        1.01340644415292
H            7.55583400489326       -0.59128863402360        0.83139707692442
H            2.13966758285303       -0.16171009997574       -0.08768126301175
H            0.32333214283587        2.44263063941424        0.04066762815654
H            0.35531505992779        2.60513513290806       -1.72811756997578
H           -1.12553883922851        2.07333713498561       -0.90895204674962
H           -1.11383104662617       -0.01013034842685       -2.44547632813476
H            0.39462890432461        0.55444468566947       -3.18718674400334
H            0.31269711820801       -1.06201384965863       -2.45445114655450
H           -6.19956871298746        0.12059817371485        1.10399090987816
H           -5.26696780669386        1.14697241124700        2.24146099761484
H           -5.75265379009054        1.79917400684381        0.64559944810390
H           -3.24172721305061       -0.00231689796193       -1.12221919880419
H           -4.63815584400154        1.10801124560865       -1.26859863212130
H           -4.92443069179104       -0.64139344561263       -0.98548204737680
H           -2.94654914059627       -2.36458597701737        3.04301113846765
