46
 energy: -86.354120694153 gnorm: 0.000264386845 xtb: 6.5.1 (579679a)
C           -1.55659959331487        4.24623509805769        0.06906253711417
O           -1.66174124785933        2.81921729535046       -0.02644363160478
C           -2.88535895891737        2.31952553059197       -0.11712726767286
O           -3.89315255104981        3.00093741679124       -0.11962421397476
C           -2.91912949202923        0.84272039942136       -0.21474073116703
N           -1.72363853021573        0.18292951555234       -0.20479334658390
C           -1.66382082961543       -1.10760729606841       -0.29162604646507
C           -0.24519809091512       -1.69080169870601       -0.28260692328747
C            0.16662100803604       -2.14713294880748       -1.68974806858603
C           -0.03276735993709       -2.76182084479586        0.79410078174098
N            0.60712607211571       -0.53909699187660        0.07157902440820
C            1.90816225144933       -0.47789006520020        0.14069861702942
O            2.61821497575308       -1.54131694257625       -0.08757973957900
C            4.05543816832891       -1.56558863067751       -0.02858504475217
C            2.44536027527178        0.81919216284783        0.48517638276363
N            1.71742313596509        1.87872160637580        0.71440656135067
N            2.56520506624201        2.88109723480768        1.00305517702630
C            3.77416711362658        2.39071396457006        0.93727347942014
C            5.05079013263672        3.09252892567598        1.16717295463398
O            3.75717852012883        1.09106057080689        0.61366475702750
N           -2.79026978889915       -1.87099981554233       -0.40163185745194
C           -2.79743515372798       -3.33369807832201       -0.49239173593201
C           -4.07696248480289       -1.30768367278572       -0.37654330056710
O           -5.06776729447954       -2.01373865031302       -0.41901942597065
C           -4.09934049014255        0.15318095286127       -0.30233317949341
O           -5.30208578505634        0.72126574352593       -0.31186519512686
H           -2.00105801406504        4.71175359002599       -0.81342181288360
H           -2.07153170064726        4.59765547935321        0.96606886946661
H           -0.49411822619236        4.47301413354205        0.12593892805865
H            0.19200900465453       -1.28631581999628       -2.35595398873189
H           -0.53787798134387       -2.87380129208612       -2.08518815946323
H            1.15283378977668       -2.60366158840374       -1.65718556470229
H            1.03214261237978       -2.90548763062934        0.95832013673947
H           -0.49301970531841       -2.44721740164101        1.72929502774152
H           -0.45174018630997       -3.71519581529561        0.48736514194640
H            0.07198193907432        0.33153770036378        0.20787617053193
H            4.33439094475004       -2.58957720770079       -0.27013637789527
H            4.39187923997913       -1.30258025472957        0.97422436282872
H            4.47002734246610       -0.87253107459112       -0.76069978610455
H            5.61732448402124        2.58266591468095        1.94649176937277
H            4.85836608528123        4.12169777916869        1.46154817941072
H            5.64854951481169        3.07570937359352        0.25526464134460
H           -1.92186776892449       -3.68946924480640       -1.01948489235592
H           -3.69076761931707       -3.63088598435704       -1.04217855836603
H           -2.83567696936819       -3.75922754941261        0.50975497424053
H           -5.22226485430091        1.69996511135597       -0.24743362548229
