20
 energy: -38.329141845470 gnorm: 0.000428881414 xtb: 6.5.1 (579679a)
C           -2.61316372319462        1.50888469130013        0.07106494046741
O           -1.36399758913002        0.91333385355716       -0.25089418688747
C           -1.33400938527812       -0.44640940154701       -0.24395903651738
O           -2.34368038735888       -1.10862242805805       -0.01550201516991
C            0.07799220827205       -1.02268406214333       -0.27725527670928
C            0.13378126557228       -2.41412773017816       -0.91052294900003
N            0.27615127102214       -1.01730479418405        1.17244370510416
N            1.23189047080518       -0.05873715633486        1.39621452587411
C            1.64990674982301        0.41848430697649        0.28632079127833
C            2.69993824151430        1.45146860652779        0.07353125606607
O            1.03131686295290       -0.14076829624724       -0.84164306228570
H           -2.47015116047212        2.58859757524364        0.04766198417940
H           -3.37618161298206        1.22427824271674       -0.66058758833618
H           -2.94870089640223        1.20116218601950        1.06710576958335
H            1.09735877544436       -2.87054632092002       -0.69398339454515
H           -0.66005046836142       -3.03002684016119       -0.49187553521141
H            0.00620730727064       -2.34188211447737       -1.98928691434013
H            3.13491475037338        1.72425477370872        1.03344201421193
H            2.28223947174420        2.34696333081270       -0.39186182154870
H            3.48823684838501        1.07368257738917       -0.58036220621236
