43
 energy: -83.845216054085 gnorm: 0.000182264081 xtb: 6.5.1 (579679a)
C           -4.99068869392657       -2.37955664741632        2.28782963899765
O           -3.97385388176361       -1.84145110301570        1.44816081076272
C           -3.80931963203511       -2.45248226898603        0.25577532856416
O           -4.51108328452448       -3.41015177828590       -0.07938831112651
C           -2.75451999964859       -1.88799049300746       -0.56672785831436
N           -2.05080583971183       -0.81674734616148       -0.05893239409637
C           -1.10847162237559       -0.30028342264428       -0.77154036844043
C           -0.33308458657213        0.89950375562309       -0.27490059160666
C           -0.33699748838669        0.92439824332486        1.25934376560925
C           -0.99534926837602        2.16213468060754       -0.84537248372642
N            1.04006115389152        0.76766191389784       -0.81060243138174
C            1.95652084797629        1.78866169091730       -0.40005027478210
O            1.80727136350235        3.03566719652216       -0.99358280710106
C            2.86548685264250        3.45665450171496       -1.85080783079540
C            3.03649512699980        1.48617191140365        0.39159046424194
N            4.06952983323237        2.27538149809837        0.74795281977498
N            4.87932003349390        1.50072931122372        1.54721557440908
C            4.34110753575233        0.33602298941594        1.64544697347468
C            4.85422968614755       -0.83952556799624        2.39449127933801
O            3.16724919468949        0.22873438699518        0.95139463251449
N           -0.78656829207087       -0.76582826847980       -2.01380818681997
C           -1.41544721905333       -1.84339152205489       -2.63417632046008
O           -1.05675219271650       -2.20422830291438       -3.75625641550701
C           -2.46322049350936       -2.41471471479214       -1.82569737637329
O           -3.13675310560159       -3.46648074071950       -2.34631387644769
H           -5.00865209472349       -1.77184208402905        3.19110909275410
H           -4.76618665051430       -3.41962247224265        2.54100549520933
H           -5.96281395844394       -2.33688530284247        1.78844586661919
H           -1.36357103315737        0.92601771240496        1.62364625628262
H            0.17415642279495        1.81560437065784        1.62096649466083
H            0.17180372125945        0.04231194245978        1.64699538919995
H           -0.54701563392121        3.05605357538193       -0.41532324084509
H           -0.86598351826597        2.18986565541523       -1.92671562852218
H           -2.06009138697405        2.15688807106985       -0.61321710354991
H            1.41531926807462       -0.12247863634455       -0.48532824933808
H            3.80509186799925        3.55688099009804       -1.29146631041426
H            3.01349279121796        2.74977850685898       -2.67625631718436
H            2.58011207939196        4.42949864407330       -2.25492975653648
H            5.03255013485771       -1.67493457520351        1.71614396314301
H            4.12994575081031       -1.16363540342521        3.14267681245415
H            5.78642094589471       -0.57475363671786        2.88887418878277
H           -0.01259772250621       -0.33322929149239       -2.50069674068230
H           -3.81633801183249       -3.76440896939287       -1.69697097274630
