42
 energy: -82.947042169840 gnorm: 0.000487657267 xtb: 6.5.1 (579679a)
C            6.17690411685912       -2.20291562691749        1.35213476120033
O            5.20141795555619       -1.16774798995701        1.46622867953802
C            4.20158048439810       -1.19677005309457        0.57765516121227
O            4.11954910781733       -2.05512126353947       -0.28093898477654
C            3.21943267578739       -0.10177112950831        0.73240224001215
N            2.23193803803526       -0.14021805311253       -0.19895916543439
C            1.30338842705992        0.76015485311544       -0.22538229660056
C            0.23124787480787        0.70782361701829       -1.28777043831955
C            0.33985255799739        1.92971151792617       -2.20903164658693
C            0.33787990597344       -0.59917369640796       -2.07499460884579
N           -1.06354198721229        0.75559247154965       -0.57057611836453
C           -2.23651366217826        0.70772576982018       -1.18727303713501
O           -2.45466369774363        0.61068531907392       -2.36993197557373
C           -3.46758969197221        0.81868795676890       -0.18040884446644
C           -4.32221504997392        2.00084587252028       -0.63169674983297
N           -3.02274424685158        0.90830313829906        1.16263786988819
N           -3.40281243419085       -0.15211850524642        1.80231025319808
C           -4.10149536744599       -0.92103458918858        0.95843080789330
C           -4.72882911556208       -2.20862790668143        1.28807662839647
O           -4.18763269611940       -0.39864469910286       -0.23711096337392
N            1.25750066275159        1.77955275699243        0.68433580162506
C            2.17947466264743        1.94460850943891        1.70165145283844
O            2.06985428840995        2.87707676984658        2.47668483733268
C            3.28271939189062        0.90654772290817        1.75053344523425
O            4.13853697982610        0.98647672396919        2.63322736683839
H            6.64394597261382       -2.17674359892433        0.36400200356569
H            5.71125418792280       -3.18066946115621        1.50126619645880
H            6.92189741370713       -2.02023393541192        2.12446457733318
H            1.32455130333013        1.94701755940446       -2.67354736748170
H            0.19961758869077        2.84452089340739       -1.63683543126146
H           -0.41920649700671        1.88000164396618       -2.98712760558646
H            1.32028384552515       -0.65533959870219       -2.54177608137627
H            0.21731887406035       -1.44863964177720       -1.40436375257970
H           -0.42724908991614       -0.63794129099260       -2.84695211537518
H           -1.05772996884776        0.86248764380225        0.43410893016192
H           -4.57826124511682        1.86694706231741       -1.68103844110525
H           -3.75614071421442        2.91969680801497       -0.50313249451957
H           -5.22733364394254        2.03824298219240       -0.03034355887294
H           -4.75003742513499       -2.85434469750239        0.41214994833389
H           -5.76059280096073       -2.03041723218788        1.60040659443427
H           -4.19972066725174       -2.68575607914365        2.11040495224446
H            0.53416468597997        2.47725745619544        0.62607616972918
