43
 energy: -83.182082982680 gnorm: 0.000761014062 xtb: 6.5.1 (579679a)
C            6.74291900659244       -0.96471950458564       -1.42974891903803
O            5.56954989232348       -1.09987891288931       -0.62119344175080
C            4.64158015722617       -0.15666582084325       -0.75358857932165
O            4.74813388949457        0.77999867946735       -1.51182568795326
C            3.45485391912406       -0.36712790825367        0.12916426624787
N            2.50529614752394        0.62151918490874        0.01538422757203
C            1.42777144424010        0.57312787056368        0.71856945358705
C            0.40895882661244        1.69400477523364        0.58359140913365
C            0.85518036167207        2.65956549393563       -0.51523454104595
C            0.24494718164718        2.43938879874148        1.91294578179235
N           -0.88687918884803        1.13161326021854        0.14512777138722
C           -1.74175700320570        0.45052678246830        0.91444259617580
O           -1.58769212888469        0.10933245441414        2.06982230190925
C           -2.99163467764928        0.09456204080861        0.15875472820792
N           -3.27661443011542        0.35915861354090       -1.08120763871101
N           -4.49351935419935       -0.18000951341335       -1.27925188431702
C           -5.13079617134124       -0.08107909337737       -2.57675993231301
C           -4.91458585837394       -0.75650071349077       -0.17072455055987
C           -6.18013761413431       -1.46467386398192        0.07843943049545
O           -3.98463509033587       -0.59521279398989        0.74603809164289
N            1.18258371203109       -0.43303883414809        1.60721708250146
C            2.04128243964613       -1.48710349828754        1.79224678050649
O            1.81186595339880       -2.40559788824967        2.56482699559467
C            3.26001886206300       -1.41628112893144        0.98536274495680
O            4.11588353975550       -2.42793119832466        1.15562405841266
H            7.29302882636563       -0.06501478602876       -1.14390662286246
H            7.34788426796693       -1.85141292569214       -1.25027252785540
H            6.46638183110672       -0.89977322657456       -2.48471754897671
H            1.81814073783046        3.09391686029492       -0.24987096693556
H            0.96177260278719        2.13030242744816       -1.46094966942176
H            0.12191774221822        3.45525021060374       -0.62788540388023
H            1.17996852518872        2.94374843730172        2.15381951115583
H           -0.54557563937354        3.18134682482462        1.81811457950792
H           -0.00485799642493        1.75769154190542        2.72234233752009
H           -1.16893478582012        1.34000629922527       -0.79949644131302
H           -4.59667001104722        0.66941855201622       -3.15351423578627
H           -6.17043135847592        0.20639563485203       -2.43577837554310
H           -5.07662607169400       -1.05044104049392       -3.07160200106784
H           -6.34715682621311       -2.21320118553553       -0.69651824151171
H           -6.14746162599562       -1.93741328012873        1.05856531392052
H           -7.01110034655709       -0.75683462843894        0.04360004657624
H            0.31554928191537       -0.44401371978350        2.13410806722053
H            3.74159602996615       -3.05155627733787        1.80594063413649
