46
 energy: -86.321047784551 gnorm: 0.000882423128 xtb: 6.5.1 (579679a)
C           -4.14472413822805        2.29633708980922        1.09918319750635
O           -3.35026958376135        1.24834363400986        0.49117685697491
C           -3.89080458175159        0.08486252678293        0.33186795475138
O           -4.99299619411500       -0.28274710208421        0.57690039954189
C           -2.81715648319140       -0.95560799666043       -0.31054659259249
C           -3.40031311723707       -2.36021935241655       -0.15279344558835
N           -1.63664721855150       -0.78159172631637        0.45507485847149
C           -0.67037506601530       -0.02330098478193        0.09189086763758
C            0.48946827972098        0.07760058178640        1.07013028070861
C            0.45371061007678        1.42689008332616        1.79476090636327
C            0.39441796866873       -1.06218530322229        2.09517538092941
N            1.75508648573448       -0.06075752769049        0.35566934300853
C            1.89981836270902       -1.03243087634777       -0.57991370789769
O            0.96769263455467       -1.67947074936332       -1.02923087604537
C            3.29469222770465       -1.19295454405870       -1.03496422809769
N            3.76239815323036       -2.03185998962930       -1.90652115759607
N            5.10273589814386       -1.81339980955041       -1.98150156747829
C            5.37422375052924       -0.85366428101215       -1.15082322336633
C            6.69033096957694       -0.24479737664024       -0.86346401659485
O            4.27270036338094       -0.41725442234484       -0.51901875420583
N           -0.69343234945193        0.71771731938680       -1.09027684116521
C            0.28295224131491        1.74435770414546       -1.46082123841250
C           -1.67236274004864        0.53610906578389       -2.02079669000430
O           -1.72787021729401        1.10274234348108       -3.09712916520003
C           -2.72457566839851       -0.44266998903160       -1.66092587317688
O           -3.60171442380088       -0.70904486043582       -2.55234164189899
H           -4.10876570629223        2.18030906465357        2.18223218742577
H           -5.17245495944577        2.23111244098084        0.74110258713428
H           -3.68004731249198        3.23170250528412        0.79799589329967
H           -3.56212243918524       -2.56186632033794        0.90353738045301
H           -2.69433011688552       -3.08286987037397       -0.55640424806875
H           -4.34440255835962       -2.42720816810211       -0.68894579019795
H           -0.50492019663129        1.54016927379636        2.29887866139768
H            0.58833105806357        2.25665742033467        1.10611188360697
H            1.24905281720742        1.45726028943361        2.53731927902023
H            0.35353854317798       -2.02250710767060        1.58317814314356
H            1.27085560855124       -1.03451901186416        2.73928804764830
H           -0.50080677390528       -0.94370978627489        2.70179403150721
H            2.57249530103941        0.35151921818833        0.77485828756867
H            6.66688662175086        0.81702006513882       -1.10825523281639
H            6.91731216174822       -0.33838767008708        0.19843941799168
H            7.46112082184823       -0.73951005105156       -1.44999781268535
H           -0.16005419549830        2.72204862817143       -1.27336964657021
H            1.19719456075556        1.62902771982418       -0.89301542462104
H            0.48715770395493        1.64342666613206       -2.52718965171243
H           -3.45302810291263       -0.20067876310539       -3.38383402009928
