33
 energy: -58.507531687864 gnorm: 0.000633342725 xtb: 6.5.1 (579679a)
C            4.78073949242310        0.57203045261495        0.91149696399792
O            3.70539542729618       -0.15202553593815        0.34868204097265
C            2.47213137538378        0.55097856399403        0.33022513226431
O            2.44645673066716        1.71591075200488        0.80350147603778
C            1.45900909354945       -0.17407728467597       -0.26486874905243
C            1.54410056699068       -1.58280455885561       -0.71105653955348
O            2.62052347279601       -1.95709550342971       -1.55346252246749
C            0.52450016221836       -2.43520365543615       -0.46247617105590
O            0.25652797383377       -3.63323623523733       -0.74949962274710
N           -0.57007685089635       -1.72608171603088        0.31690495402132
C           -0.88553124297295       -0.46102034495065        0.00499766469749
C           -2.36435924879220       -0.08047023600406        0.13300957965128
C           -2.57005680423711        0.60778706315663        1.49012159746356
C           -2.90756673194417        0.78902779865407       -1.01197870057483
N           -3.13297561838324       -1.33090547292411        0.15449063476095
N            0.11285149856473        0.35622828797841       -0.25743420769233
C           -0.06148388562734        1.74512256125975       -0.66903878981625
H            4.98383289708152        1.49136502088873        0.34748468959091
H            4.57611851492807        0.84557436047712        1.95494364389513
H            5.66219109231708       -0.07060664273653        0.87737965278574
H            3.43494842104814       -1.58466255777921       -1.18250204549664
H           -1.37893105725036       -2.32475379924548        0.45781389637982
H           -1.95852372066200        1.50492223075622        1.57042292359107
H           -3.61515024478383        0.89077288500365        1.60299654169355
H           -2.30169033266787       -0.07553837402547        2.29582830108083
H           -2.53177202676861        0.44236408187142       -1.97373841952661
H           -3.99389673940265        0.70846655547476       -1.01860391620294
H           -2.65853897197996        1.83948577045006       -0.88383042314193
H           -4.00967067615064       -1.16838017897439        0.62569738280665
H           -3.35546448517793       -1.60478475721847       -0.79397776739861
H           -0.46415451489190        1.78833401452550       -1.68177611090626
H            0.90608645882149        2.24433353808053       -0.65457330817133
H           -0.72557202533317        2.26894491627333        0.01542321811444
