42
 energy: -82.933318733482 gnorm: 0.000153870450 xtb: 6.5.1 (579679a)
C            6.47787963822598        0.40768165657019       -1.36694937771744
O            5.10677925195101        0.28787375213611       -0.97258637270319
C            4.79253227716082        0.74920154090497        0.22788016523420
O            5.60584067381629        1.25503971790765        0.98256159891416
C            3.35739669005477        0.60379321720065        0.57579705778049
N            2.54218897099798        0.01225482427648       -0.31166859333423
C            1.24707295721093       -0.08310626023174        0.00883809798742
C            0.37814657459022       -0.76963941907260       -1.02758426799321
C            0.58380891220745       -0.11111550735011       -2.39803123735073
C            0.75324477944409       -2.25877685567458       -1.07376204093108
N           -1.00895086174285       -0.61235703795295       -0.60140550615540
C           -2.06056651750227       -1.09537589795902       -1.27320413177947
O           -2.02774979105191       -1.74878057659312       -2.30434613497892
C           -3.35833515257276       -0.74042665517317       -0.62842449939385
N           -4.57080658713095       -1.10771516448682       -1.08815599355340
N           -5.46370616021274       -0.61720554939677       -0.31444731770969
C           -4.82719528218152        0.13336476792612        0.73417260618778
C           -5.22572112561439        1.60880393418896        0.64710167116364
C           -5.14247192935246       -0.47915573412024        2.10025897092316
O           -3.43224264810114       -0.00614312262572        0.45031170181147
N            0.67812992053440        0.34005223551227        1.11168729586416
C            1.42912017748392        0.94463834318964        2.09559180872624
O            0.93645315572366        1.33590946945969        3.14731054696167
C            2.87241859630851        1.08370223241358        1.78990793013229
O            3.63281072982852        1.66419556615871        2.70482008294371
H            7.10986025495576       -0.18205608483370       -0.69946176994321
H            6.54224450095927        0.02905286016769       -2.38479864650157
H            6.78737418364703        1.45435123769782       -1.32791797132625
H            0.02292622472750       -0.64417027491319       -3.16344214466020
H            1.64402031978996       -0.13739011714630       -2.64496051082129
H            0.25129813725426        0.92523401093248       -2.36610370742528
H            1.81540397044936       -2.34716653215932       -1.29650096032829
H            0.55052408923997       -2.72337684763726       -0.11006569116882
H            0.18110932990158       -2.76954729628138       -1.84600929966091
H           -1.14495088683988       -0.09895808028708        0.26509157930593
H           -4.70159794473390        2.16900298292588        1.41755462110258
H           -6.29920960585609        1.69532740219643        0.79396329663070
H           -4.95797863111535        1.99727549851811       -0.33302684641308
H           -4.61598152690237        0.07645819507869        2.87234125807254
H           -4.82011768916521       -1.51807875930525        2.11338912564064
H           -6.21409742035611       -0.42562036956920        2.27394516292444
H            4.57310044396583        1.70294869740023        2.40771644354152
