47
 energy: -80.186241044164 gnorm: 0.000317913723 xtb: 6.5.1 (579679a)
C            7.12272397038745       -1.15996168988039        0.48769965855344
C            5.96734515726430       -0.69583023446318       -0.44633595289943
C            4.61506160816588       -1.04821671190783        0.13526308979869
C            3.73694398447093       -0.10920170378302        0.60208168644741
C            2.43793522577617       -0.55471042578543        1.23353142134924
N            1.30951020624570       -0.13076816721213        0.40001356565800
C            0.04519766629373       -0.40069441005697        0.77957967730856
O           -0.19753874184823       -1.02574235516710        1.81753839094353
C           -1.04259745824222        0.07189354363976       -0.11957630040240
N           -2.30501741365133       -0.21081070830526        0.33676714808385
C           -3.36808479782478        0.10142715539785       -0.32812791890477
C           -4.69480610552505       -0.30656575846390        0.30411538003351
C           -5.13387638966586       -1.65468888858949       -0.28699175751108
C           -4.50033058868483       -0.46138946145945        1.82241610532152
N           -5.72855222815739        0.69292937820554        0.04374894981267
N           -3.30346853054471        0.71365712833267       -1.56220246635088
C           -4.47447898917360        1.04620414059673       -2.36864115098798
C           -2.07176231866409        1.08752643111290       -2.09828638778059
O           -1.98157407758989        1.67599069134669       -3.18630438047261
C           -0.91904816261152        0.73505295450046       -1.32306238066574
O            0.27233857549335        1.09801948985037       -1.87659818638451
C            3.96562671384971        1.27684930646720        0.47610955040229
C            5.13217333777432        1.69809305416823       -0.20832080359135
C            6.01642639467509        0.78613203089667       -0.66195966665552
F            7.12082344870211        1.21139787816897       -1.37114897153849
H            8.08619293050592       -0.88139469402989        0.05969690897663
H            7.02230710447135       -0.69350225047921        1.46790831836146
H            7.09018499457882       -2.24254378625556        0.60960726251164
H            6.12244840413413       -1.21998416311233       -1.40816516020486
H            4.39260367610015       -2.10775958178903        0.21710688660334
H            2.32159400962447       -0.11372178994448        2.23417602068080
H            2.40128166669880       -1.64622071698644        1.34942815046155
H            1.51658981682969        0.41816271314273       -0.41890042565797
H           -5.32830073054018       -1.57105768058152       -1.35482688420855
H           -6.04564940890773       -1.99118461752975        0.20415838311960
H           -4.35446811110880       -2.40025447057122       -0.12998298210052
H           -4.13645692016911        0.47191665374327        2.25035469919934
H           -3.77907533664392       -1.24996540506501        2.03660313266599
H           -5.45313003935059       -0.71337799295240        2.28421047061006
H           -5.58758464437194        1.49622266251113        0.64270982579205
H           -6.63237943701804        0.30362604870712        0.26886015093382
H           -5.19574747149345        0.23496906805473       -2.34447224719009
H           -4.14510931366759        1.20992022702299       -3.39531169132961
H           -4.94547497167159        1.95327069575664       -1.99060245057579
H            0.07364186747255        1.55107211236399       -2.71675067190989
H            3.25346149697138        2.00147208667646        0.84879169045401
H            5.30210293064304        2.75374321370742       -0.39507668676184
