20
 energy: -37.575216928715 gnorm: 0.000553706486 xtb: 6.5.1 (579679a)
C           -3.82208711300243        0.60178525744885       -0.37318255504004
O           -2.39335329753065        0.41468304766588       -0.30287963165404
C           -1.94865941656220       -0.61919842408636        0.34644445467948
O           -2.56862406262736       -1.46825845571054        0.91420796012980
C           -0.41433054352352       -0.65049668027812        0.31192873261577
N            0.34542457298700       -1.63922992287898        0.89157636032433
N            1.55361427959359       -1.35707491213334        0.67358385446189
C            1.65609384296333       -0.15409813237669       -0.06758989612387
C            2.31279054938548       -0.39975618484258       -1.43556030659820
C            2.39056257487988        0.92778233851426        0.74103976511035
O            0.29729294096292        0.22755381337548       -0.25208203018863
H           -3.97800118353774        1.45791653446455       -1.02444288583956
H           -4.20754873557028        0.79598603666538        0.62851083151456
H           -4.28575133813221       -0.29666647602155       -0.78280190890877
H            3.33069068952889       -0.74608280320540       -1.27399306138371
H            1.74098349790434       -1.15191893550532       -1.97490667335054
H            2.31650432705923        0.53482343077710       -1.99133442922134
H            1.87173292288756        1.07998066351520        1.68504173084305
H            3.40892550832538        0.59280747813251        0.92231617278674
H            2.39374098400854        1.84946232647958        0.16417251584288
