42
 energy: -83.006124392500 gnorm: 0.000815121173 xtb: 6.5.1 (579679a)
C           -6.03426078318634        0.49230746035867        1.17730600965373
O           -4.90663808897708        0.54738152825623        0.29213174714562
C           -3.76350310912673        0.06643694870331        0.75042504831419
O           -3.60918263679390       -0.40067472644957        1.84996112619515
C           -2.62660290287020        0.17516649443520       -0.25597277782678
N           -1.60439936704207       -0.76820538076494       -0.00050302047865
C           -0.47360911892865       -0.63241368598905       -0.57028073562087
C            0.57105460742079       -1.72109003399130       -0.43936713776673
C            0.21802179855124       -2.66092828115539        0.71708557762247
C            0.62070228629241       -2.47318994294338       -1.77846443868962
N            1.86126450423870       -1.07362166374725       -0.17854095017355
C            3.01932495168118       -1.76422690450506       -0.07041269012300
O            3.15172698598262       -2.96027204708956       -0.26203787087689
C            4.16378423927137       -0.89411266295367        0.29849184432989
N            5.39472144421204       -1.24687221183053        0.50249200923773
N            6.08273307937612       -0.11314834561981        0.81446652143487
C            5.22974300499828        0.86300843960325        0.78180079452519
C            5.48204276309131        2.29807618013189        1.03466834949567
O            3.99613856153503        0.43634746840807        0.46381631408013
N           -0.12653849678983        0.46436519866367       -1.33369359792839
C           -0.86485863348610        1.62414225468371       -1.36672364636644
O           -0.37427175103685        2.68297000549555       -1.69302613322804
C           -2.29959042161803        1.46232916204664       -0.95754317186017
C           -3.06349275562996        2.74917297278169       -0.75898158941200
O           -2.95833651022316        0.39437960585435       -1.59299753665853
H           -6.83228395676493        1.05176465362258        0.69499303383284
H           -6.33382007003865       -0.54640074768126        1.32944386420956
H           -5.77570236637988        0.94299281158805        2.13731262860973
H           -0.77232588083141       -3.08221888009839        0.55291041332736
H            0.21639947686000       -2.10838732047308        1.65528738695115
H            0.94625871598342       -3.46751274980499        0.77542226348099
H           -0.37205521631568       -2.85318813953636       -2.01549708239622
H            1.31492542319898       -3.30851083495390       -1.71581263741621
H            0.94322376241444       -1.79975005317405       -2.57024804211075
H            1.85775485848535       -0.11528527816245        0.12759881974900
H            6.51674140879239        2.44148197187598        1.33597129931837
H            5.28372305000344        2.87285563109128        0.12985095601763
H            4.81597336241407        2.66155688284283        1.81619949014604
H            0.83243920130849        0.55681804259095       -1.63307742493754
H           -2.84574844475680        3.42212693509982       -1.58854081047670
H           -2.74933722508855        3.22801787963763        0.16707370616845
H           -4.13213975022469        2.55631036315417       -0.72567790949546
