29
 energy: -54.515722715508 gnorm: 0.000719074226 xtb: 6.5.1 (579679a)
C            4.66221571532076        0.91726546246355        1.31339905374884
O            3.60036269985699        0.57777508270974        0.40933473767944
C            2.38254197406108        0.46622875982035        0.96022151173448
O            2.18421913755006        0.63832779575434        2.13959817974649
C            1.31314872880710        0.12030269073069       -0.01690260289863
N            0.07365779755819        0.03396330549249        0.57242140325719
C           -0.94947987396370       -0.26492314841740       -0.15414907205233
C           -2.33879169957335       -0.32732048787181        0.44304042802853
C           -2.27608020333664       -0.94112407686812        1.84755418798397
C           -2.88806689080215        1.10490622781232        0.50186355159514
N           -3.17883302687442       -1.11480032988719       -0.45441708289249
N           -0.84952811707387       -0.48137729024752       -1.49159231288283
C            0.32607664702520       -0.42997782522467       -2.20347307756576
O            0.35208663314728       -0.64261902454095       -3.40533108990045
C            1.48436194986231       -0.09953130484581       -1.36141886159662
O            2.64703950512128       -0.04973371540352       -2.02697925580451
H            5.56487634168974        1.01656167735646        0.71649675262169
H            4.43353678007687        1.85928794126919        1.81667792112711
H            4.78214684132923        0.12641687669207        2.05708783268163
H           -1.61759313062331       -0.34675152687066        2.48107426698654
H           -1.88964911506055       -1.95799862648048        1.79464810419203
H           -3.27205928712746       -0.96423390457946        2.28520189219233
H           -2.96098542575396        1.51670332018283       -0.50403389839363
H           -3.87802639106971        1.10204120632668        0.95490685814107
H           -2.22722420889232        1.73399292511188        1.09739617004485
H           -4.15184826548739       -0.92169700940871       -0.26698077006952
H           -3.02679320294661       -2.10040326766494       -0.28842135612412
H           -1.70433216794614       -0.72832666247720       -1.97942324296892
H            3.40302025512475        0.15704492907034       -1.45237422860981
