33
 energy: -57.818500586436 gnorm: 0.000514013255 xtb: 6.5.1 (579679a)
C            3.91203224068807       -2.09687808227843       -0.69624571441896
O            2.66287947967263       -1.38122792340925       -0.73356705931815
C            2.56771256083430       -0.28666882582978       -0.02005970813878
O            3.41931741954247        0.18808018831233        0.68127214892317
C            1.18396525155012        0.33987115298273       -0.14330427555192
N            0.15965200910322       -0.42304011661752        0.04602891030769
C           -1.09007890391126        0.09673388276633       -0.06234423040456
C           -2.26467491592296       -0.79235643902889        0.15552381916419
C           -2.28322072005962       -1.80775832550576       -1.00323872624778
C           -2.10297992976714       -1.52749334509586        1.49991793007605
N           -3.45887130577508        0.02670648067591        0.11245883966061
N           -1.30139477430340        1.34381018736234       -0.42778416613957
C           -0.28216496400063        2.25994967356244       -0.78460266063806
O           -0.53516479574173        3.28734527411522       -1.33398196208848
C            1.08738529323062        1.82361449355206       -0.29803852635668
C            1.19303785965020        2.39294804905740        1.15640914820137
O            2.11114256230809        2.30328819773992       -1.10004031340141
H            4.64643206959342       -1.57514759769917       -1.31253478175479
H            4.26979436217572       -2.16273568280070        0.33260966822874
H            3.70701397687789       -3.08558207654373       -1.10064882583279
H           -2.43630640676310       -1.28866884343679       -1.94756543132887
H           -3.10105741412516       -2.50662543247523       -0.83966790057746
H           -1.34252006213583       -2.35492445334003       -1.03724618940650
H           -2.09006469083509       -0.80956359025758        2.31725806567200
H           -2.94425745807169       -2.20422597353387        1.63115725792142
H           -1.17382531168346       -2.09515809595650        1.50405225021664
H           -4.26420607844047       -0.53474311389724       -0.12572099832400
H           -3.62649433949155        0.45022551811277        1.01408879966320
H           -2.27687921447859        1.59844707678605       -0.59879890621016
H            1.06545699710994        3.47200445609754        1.10381958881797
H            0.42857290876352        1.95955375622470        1.79501095485731
H            2.18348265491226        2.15574415946080        1.54000596861239
H            1.97628163950634        3.23447537089739       -1.32422197418243
