16
 energy: -33.394348957812 gnorm: 0.000781588843 xtb: 6.5.1 (579679a)
C            2.54653377791086       -0.01911150905809        0.62034802743384
C            1.52543785897694       -0.16693127657329       -0.42874162600530
N            1.71121590629575       -0.40348281390887       -1.70614565039865
N            0.51132331748229       -0.47055198467542       -2.27762349357927
C           -0.37664433834066       -0.27021602611759       -1.33095402486924
C           -1.79233433332779       -0.26596794598422       -1.52441009974245
C           -1.97542494143108        0.44615340868204        1.44972140138806
O           -2.41514057271464       -0.45163904815268       -2.50971204979757
Cl          -2.85862817756003        0.06326154851963       -0.05721978079730
O            0.22574181964737       -0.07251734239502       -0.13894243799665
H            2.38558463209483        0.91257201815760        1.16243546528167
H            3.54015807670423       -0.02977489099529        0.17768966101473
H            2.45423363723353       -0.83730536826918        1.33620483985387
H           -2.75130964519955        0.68322723497451        2.17381751484639
H           -1.32822414712349        1.30200052889964        1.28680128261089
H           -1.40252387064876       -0.41971653310336        1.76673197075658
