42
 energy: -82.974852576092 gnorm: 0.000582634073 xtb: 6.5.1 (579679a)
C           -5.40608342576389       -2.10718764970140        0.82238886429518
O           -4.07860469802544       -1.61979234808039        0.58067694646443
C           -3.91325681081437       -0.42803685363445        0.10807915834978
O           -4.98451738428206        0.26811686383869       -0.13084644204098
C           -2.57868546966799        0.03929663113875       -0.11059568755022
N           -1.59411530839305       -0.85519061783625        0.19949257693340
C           -0.35447288854196       -0.44900399877359        0.02196290518891
C            0.72080524238595       -1.46732268264749        0.36990513278078
C            0.58808746262913       -2.66765034945968       -0.57887961914365
C            0.54555820549592       -1.90468639061921        1.83074412796158
N            2.01642443788048       -0.82035932443814        0.19050468603479
C            3.19486831692703       -1.41869100698482        0.40215308931309
O            3.35409881910962       -2.57851439727483        0.76049742507565
C            4.35377284587953       -0.51590530565486        0.15607011374057
N            5.61480389154708       -0.81354015530039        0.21544911583722
N            6.30360280496825        0.32726961064300       -0.07897459906966
C            5.41965259991965        1.24971615529763       -0.29806163376930
C            5.65490712642585        2.66798162870481       -0.64691873658763
O            4.16745748023821        0.78224512314821       -0.16689188864546
N            0.03629341451568        0.73414130225305       -0.43029190938796
C           -0.86269860499314        1.69162686561646       -0.77146406552991
O           -0.51710788310260        2.79778699972883       -1.19722341284381
C           -2.28178234570344        1.31218628547176       -0.59506106007361
O           -3.31138916482573        2.13011654449741       -0.87532636033909
C           -3.11195707522945        3.46455026940118       -1.37000365299233
H           -5.90403656533431       -1.46924733406760        1.55363111187628
H           -5.29108745659916       -3.11765267578236        1.20766962198889
H           -5.97294226898435       -2.11064289574652       -0.10912494574064
H            0.76243891032188       -2.35162806435986       -1.60652498653896
H            1.30514182993247       -3.44393692259693       -0.31611592568191
H           -0.42073569727575       -3.06971382101904       -0.49901587364813
H           -0.46671030178919       -2.28223208872058        1.96718856641393
H            0.69763589913653       -1.05451786774581        2.49451322889064
H            1.25826942924589       -2.68825879009877        2.08316455260244
H            1.97949037853530        0.14558268385726       -0.12121518656551
H            5.23879233568047        3.31399407944551        0.12597134793502
H            6.72267642248615        2.85103410909889       -0.73748607064919
H            5.16063404374012        2.90774521040746       -1.58797380973642
H           -4.79399457945224        1.16474359594622       -0.48832352465504
H           -2.54979718258666        4.06111714700379       -0.64959013719348
H           -4.11048040570152        3.87977078353862       -1.49819329640775
H           -2.59095337993600        3.44468965150324       -2.32865074689126
