46
 energy: -87.035505774902 gnorm: 0.000467313113 xtb: 6.5.1 (579679a)
C           -5.48688896423026        2.53907966111299       -1.25359722263956
O           -4.19587022045511        1.98519562369504       -1.08160710290956
C           -4.16077248969646        0.78506822076933       -0.37463250246467
O           -5.24362186437343        0.29388949142605        0.04360872441592
C           -2.89951870927038        0.21923983651591       -0.21233310724622
C           -2.71443366253594       -1.01203681412498        0.54507223972408
O           -3.80582717087492       -1.57297945621746        1.15790874347473
C           -1.47924791726305       -1.52266415696558        0.69434194013276
O           -1.13458566090347       -2.63706209649008        1.45493567378305
C           -1.64870518687336       -2.70277252697874        2.77625082363947
N           -0.32850247544175       -0.94283128409548        0.03823341942349
C            0.32208871458172       -1.90534319505061       -0.86782891860649
C           -0.60051131087490        0.33414835991064       -0.54701955978476
C            0.58566997858536        1.16742329898597       -1.03262367194334
C            0.33915209930906        2.64805754078874       -0.70234380719072
C            0.74966708531753        1.01337181910373       -2.55005952990327
N            1.83377061116149        0.73207622768587       -0.40366824337213
C            2.02239928440652        0.69708705883745        0.92996616837499
O            1.22688885005802        1.08945346368420        1.77440497094134
C            3.34000958028404        0.12682907457700        1.30786143148597
N            3.80302141227801       -0.06590851680911        2.50741175209503
N            5.04826768573807       -0.60954397791414        2.36636278863868
C            5.26833056569282       -0.71427086080027        1.09468565669586
C            6.47894372404151       -1.23887767750755        0.42515277397477
O            4.22902824459685       -0.26955240592764        0.36582355151366
N           -1.75383276540828        0.86842280345411       -0.65782218098882
H           -5.95479141467440        2.76510452137195       -0.28753698508004
H           -5.36895925855712        3.46254014276105       -1.82253191091926
H           -6.14241207419605        1.85467848459407       -1.80550786821838
H           -4.59184078763313       -1.01927419942896        0.88000051967979
H           -1.54073084494252       -1.74395028103837        3.29966962145411
H           -2.70704925179411       -2.99082268790418        2.78192907546304
H           -1.07261497683402       -3.46593524198357        3.30515917415284
H            0.43084075738463       -2.85350761887886       -0.34176478296953
H           -0.26629171536309       -2.06160105686983       -1.77866274728185
H            1.31260959900563       -1.54311084348549       -1.13455168658197
H           -0.56606552983366        2.98043003096121       -1.20925368268416
H            1.18141584722553        3.24937537032383       -1.04025524805602
H            0.20990903378852        2.78417172587154        0.37078904263787
H            1.53720363304316        1.67076042872368       -2.91548724364082
H            1.00403843695625       -0.01141638234320       -2.81225568025401
H           -0.18681327956581        1.27695453954988       -3.04005244441140
H            2.58696198238130        0.44765274074332       -1.00396630365132
H            6.89372394026229       -0.48169135425569       -0.23943367452433
H            6.22614212888521       -2.11164273159683       -0.17643559012970
H            7.21980333661854       -1.51421409878842        1.17166360375067
