20
 energy: -38.343664888275 gnorm: 0.000599904170 xtb: 6.5.1 (579679a)
C           -1.49660973807871        1.21492912102142        1.71770070829346
O           -1.84834029590404        0.75080279814074        0.43750511473296
C           -1.39214206176535       -0.65849407644491        0.14348333708115
C           -2.31127353541255       -1.05970017224970       -1.05431631664022
O           -1.39095607843764       -1.45820853229830        1.14919291454837
C            0.04716239410295       -0.46223345046506       -0.47528282740200
N            0.47152465898386       -0.91891868473449       -1.61321079265823
N            1.81841267970042       -0.61747124432770       -1.69377240053970
C            2.11469261294017       -0.00403252120867       -0.59748869411709
C            3.43908814877127        0.52766581901451       -0.19293359628873
O            1.05024912175418        0.12501095469085        0.21669660700142
H           -2.11416541991879        2.09039571208501        1.94118144019042
H           -0.43777713447466        1.51460470427040        1.77019001681182
H           -1.67833154801918        0.45181983523871        2.49015419906408
H           -1.97756598214605       -2.01673451087807       -1.45082872668577
H           -2.27829468556778       -0.30588643689234       -1.83871997768094
H           -3.32972379216403       -1.15825790079659       -0.68421153854789
H            3.78953511796993        0.02368067374458        0.70755964740089
H            3.36933832564889        1.59334460042312        0.02215883956321
H            4.15517721201725        0.36768331166655       -0.99505695412704
