43
 energy: -83.830579963278 gnorm: 0.000328976848 xtb: 6.5.1 (579679a)
C            5.99614610140158        2.26093275137202        0.78693570993798
O            4.81731235580982        1.48556170098535        0.62714893889363
C            4.76141984125566        0.73112731621557       -0.51262755790924
O            5.70192713474283        0.75088111728470       -1.32763997032953
C            3.56748559067259       -0.04609896430330       -0.66014772274250
N            2.60267274674176        0.03969409213030        0.33232753079931
C            1.52411037746246       -0.65132119433913        0.21117795845669
C            0.46719113632004       -0.62735963182925        1.30187449650284
C            0.57130677614969        0.68031954345789        2.09948434281120
C            0.73156431917440       -1.84306750674728        2.20690104432649
N           -0.83166652686441       -0.75237345289443        0.63545472055685
C           -2.02164249755114       -0.67687700724373        1.42548796998131
O           -2.03787679208059       -0.96975117515144        2.64985477742028
C           -3.15070355722370       -0.32145172116535        0.68780089746047
N           -4.45118394732201       -0.18999413041368        1.12400347500590
N           -5.11342350132175        0.21815551326353        0.04386458271420
C           -6.53284677415087        0.46730953379725        0.13807548966707
C           -4.34872168790416        0.35671220645662       -1.01615274659595
C           -4.73916963729574        0.78110478800902       -2.38037742579033
O           -3.07851081631621        0.02702737722161       -0.69815214328856
N            1.29604056210557       -1.49157513633181       -0.84317303570748
C            2.18778770731880       -1.66004823367789       -1.91765239890986
O            1.88219988930979       -2.43577934992545       -2.83661628169895
C            3.37214170955437       -0.88153987857732       -1.78007612114786
O            4.30971600339004       -0.97381113935580       -2.76697874613617
H            5.89752817429035        2.80185328139252        1.72766825393833
H            6.10852160507020        2.97204337843604       -0.03793226074608
H            6.88246763803710        1.61881056864720        0.82093708691640
H            0.36363093363476        1.52998792002457        1.44986799871751
H            1.57958247644427        0.78507000821361        2.49951661260483
H           -0.14196178806899        0.67755473249687        2.92227440632960
H            1.76402381953292       -1.81724112271616        2.55586259123100
H            0.06785371824894       -1.83519054261777        3.06946434931808
H            0.57091886250053       -2.76261731964992        1.64484943665759
H           -0.89588673136632       -0.13073160181220       -0.16304443084105
H           -6.72911543907173        1.52822922654413       -0.01032766733336
H           -7.05613150042075       -0.10687676589510       -0.62423457521284
H           -6.86193377551811        0.16314256522197        1.12874917086417
H           -5.42366782382347        1.62725664542868       -2.33493800137477
H           -3.84852424549954        1.06566034600447       -2.93738215813140
H           -5.24033798561698       -0.02967502458309       -2.91349469592804
H            0.41865278932240       -1.98757719534481       -0.89447162359949
H            5.06110375892568       -0.37747451802646       -2.52793827768793
