38
 energy: -79.621417216720 gnorm: 0.000275199180 xtb: 6.5.1 (579679a)
C            6.39939487331635        0.72580131219604       -1.56231372890704
O            5.28547414487404        0.95000348074827       -0.71048893381309
C            4.21676885722067        0.13640116288437       -0.91034957235205
O            4.24347771312317       -0.72090282498207       -1.78680195678170
C            3.09449667378911        0.37349918026046       -0.01620572248000
N            2.03708949074446       -0.48723823907096       -0.24857325222106
C            0.97195351541973       -0.42897160187625        0.46118049254316
C           -0.15677570781440       -1.41431331617874        0.20166232110586
C           -0.43047635641691       -2.27457582988186        1.44156877210676
C            0.22830505042216       -2.31264797373702       -0.97601169491890
N           -1.38143186497709       -0.69700283922502       -0.20374491643694
C           -2.23305812035484       -0.05616966350204        0.61420342301678
O           -2.07161487238708        0.15639657605789        1.80601622467165
C           -3.43845837083557        0.40246725808908       -0.12833549257969
N           -3.64461898086831        0.28911524301244       -1.40615247959932
N           -4.87091875530655        0.83033361731800       -1.65584701175822
C           -5.33446190060496        1.23684041299221       -0.51326550525454
C           -6.63739769885707        1.88436382673534       -0.24560538616627
O           -4.47493692758108        0.99895449918370        0.48835400922520
N            0.82884709228437        0.48493430616029        1.48227685899464
C            1.78574328787200        1.40671573219361        1.81474534468383
O            1.58102089943798        2.19947155001468        2.73211762456061
C            3.05951084070136        1.36588343260014        0.99774552114618
O            3.96228985450111        2.18125284143814        1.26348506709694
H            6.77726646411106       -0.29489716472175       -1.44597002377892
H            7.17126590135363        1.43894730850223       -1.27506326852594
H            6.12428942708791        0.88065562320643       -2.61041821336044
H           -1.28428326815249       -2.92451977344863        1.25827231765781
H            0.44433922236883       -2.88980129835497        1.64737352121349
H           -0.63821903925953       -1.66038669988432        2.31484212260901
H           -0.57168915513041       -3.01989725380605       -1.18504584473960
H            0.41939023882862       -1.71098820324683       -1.86388611050479
H            1.13585563549866       -2.86319614109216       -0.73253673383801
H           -1.67892881510175       -0.82517319602227       -1.15947978183035
H           -6.48312992621480        2.86909470384313        0.19530093928675
H           -7.21127682415808        1.28499142744693        0.46081112028028
H           -7.19377325610391        1.98354866080386       -1.17405441944123
H           -0.03132934283632        0.50101086333285        2.01525536908970
