33
 energy: -58.551199788683 gnorm: 0.000259925053 xtb: 6.5.1 (579679a)
C            4.07812562080664        1.70277531381999        0.32075788669235
O            3.30886389844418        0.60067178656625       -0.15175102386000
C            1.96535157063013        0.71974935814107       -0.04752634025623
O            1.44690437068035        1.72677533864630        0.40065349014302
C            1.23244460663190       -0.58059761020112       -0.39464460145652
C            1.92282784602015       -1.34050720370851       -1.53327454239570
N           -0.13588345427751       -0.26644699698345       -0.79851096366158
C           -1.03235145044473       -0.15883431180266        0.10919896470024
C           -2.44094413977972        0.25601039265849       -0.29600459708864
C           -3.46640347455091       -0.79397129942596        0.15151638949276
C           -2.76164383513463        1.62437474840349        0.33260365397150
N           -2.49789175249503        0.33750829068561       -1.75336793099174
N           -0.81068149694074       -0.35563536160927        1.44012690760941
C            0.29774360999361       -1.19763995038448        1.86058860770268
O            0.21607301302953       -1.74320136709792        2.99793673601888
C            1.27156915803619       -1.31772264389052        0.91816096328402
O            2.41611574141804       -2.12303231878306        1.15452271030798
H            3.84144254178600        2.60618110654511       -0.24928524337226
H            3.87656417839007        1.88897254906428        1.38000826589798
H            5.12637288021279        1.44262423944190        0.18209650536549
H            1.35808279165950       -2.24551172213797       -1.75644276222889
H            2.93682814634479       -1.61707657981208       -1.24898432096637
H            1.95926166136169       -0.71993536555788       -2.42806912707744
H           -3.46463001077571       -0.90944172539943        1.23425583009832
H           -4.46451370925091       -0.48845050997838       -0.15981314805272
H           -3.23761096700622       -1.75501514766765       -0.30977190675121
H           -2.71336245392979        1.56710236416267        1.41949532183297
H           -3.76294435763209        1.94012305441027        0.04371298318260
H           -2.04606710350745        2.37011284178716       -0.01372144601787
H           -3.37998770313537        0.74655066585468       -2.02527698774833
H           -1.75759791256653        0.94993152784863       -2.08217040411074
H           -1.60409494279312       -0.39278684390412        2.05952822529594
H            2.32203912877593       -2.47365461969254        2.05139490443829
