43
 energy: -76.174960386694 gnorm: 0.000254274189 xtb: 6.5.1 (579679a)
C           -3.92573915785912       -2.07386396053730        0.48864491742869
N           -2.68333038027009       -1.30568334825209        0.57260013537611
C           -2.43193678244279       -0.15813489337927       -0.14280193048907
C           -3.42858877526905        0.48215342558635       -1.11981106987175
C           -4.00647321458259       -0.50320576533009       -2.14437623691322
C           -4.53800309049559        1.20819383061253       -0.34422819601040
N           -2.71299319437759        1.49922955583142       -1.88333394937583
N           -1.31409390388849        0.48373569563825       -0.01560263882067
C           -0.31424692910516        0.06209999699607        0.81395594044913
C            0.88861374357386        0.96143265980400        0.81584441708776
O            0.89390839191645        2.02182246230505        0.20131522198467
N            1.94324571260243        0.53841377401087        1.53961140888107
C            3.17586081524133        1.31654984128111        1.59251945650447
C            4.16163036096102        0.84874174159970        0.54236246472304
C            5.32720911089176        0.18472223194107        0.91474341692514
C            6.23301933705120       -0.24837922715650       -0.04494325285179
C            5.94202200227530       -0.00815299279927       -1.37485644119325
F            6.81162083261614       -0.42425767403532       -2.31101785929408
C            4.79255801914214        0.64649564369991       -1.78086004031594
C            3.90181817213745        1.07639967028795       -0.80858133872407
C           -0.49350517598711       -1.08437601016646        1.53039540501442
O            0.41501572290902       -1.61092145860274        2.37841710682561
C           -1.72821958743410       -1.83665652574696        1.42087557015515
O           -1.90383535158350       -2.87630568405442        2.05478243428770
H           -4.78249982967439       -1.40989431475672        0.44337936933684
H           -3.90188181927069       -2.72089727009710       -0.38742704151317
H           -3.99896495354812       -2.69070463385900        1.38405218342696
H           -4.36688121910727        0.06641320779007       -3.00114161668017
H           -3.23743391858065       -1.19427350149756       -2.48655352845618
H           -4.84229043568457       -1.07001297106076       -1.74303080880174
H           -5.14825535646309        1.77146493227170       -1.04944961785553
H           -5.17875751929285        0.51282076030707        0.19260636823270
H           -4.09732616959921        1.90101927559948        0.37209433048314
H           -2.27503401928953        2.14773758622874       -1.23482146795845
H           -1.96688211936613        1.04981408791292       -2.40155313296951
H            1.95065629217791       -0.36646890587654        1.97853289009604
H            3.60247525150890        1.20835166478754        2.59247376026717
H            2.91655086274618        2.36743529665673        1.42535887583979
H            5.53681734841325        0.00544880015785        1.96263767910848
H            7.14382428548334       -0.76233541359461        0.23273053464992
H            4.60397932717206        0.81603820954791       -2.83301217151104
H            2.99679621470438        1.59636802737100       -1.10154772112324
H            0.03955109964684       -2.42838082742366        2.75901717364265
