42
 energy: -83.618200497989 gnorm: 0.000846366219 xtb: 6.5.1 (579679a)
C           -5.80625530358818        0.89059764746210        0.51239212992957
O           -4.93743670339451        0.10964855087251       -0.29537502756136
C           -3.63031942721028        0.08465685112937        0.08343848104406
O           -3.24522960798447        0.68627721793413        1.07804931757714
C           -2.74218522039537       -0.63016849210183       -0.92075340230817
C           -3.44745280402107       -1.81934441230564       -1.57682838938657
N           -1.53185790657670       -1.08301358770207       -0.25603181237137
C           -0.61983595275789       -0.20480993815455       -0.04920518490446
C            0.55276142276991       -0.54374835360256        0.85875106349532
C            0.26339548313543        0.09874242408640        2.22248336309430
C            0.69205486428603       -2.06330439530256        1.01391401997477
N            1.77975857829318        0.05955387752945        0.34008969992067
C            2.30562998434296       -0.39428603422503       -0.87982251126268
O            1.61468249945276       -1.00536019492518       -1.71975219546910
C            3.67263841213150       -0.03102575342729       -1.08664266945360
N            4.42677375473428       -0.25907543734224       -2.16539918543791
N            5.66739265566501        0.24280989496533       -1.88401380029837
C            5.62710530347431        0.73713885540269       -0.69106197805081
C            6.73659030001424        1.38454879507102        0.05156718712289
O            4.40908414007679        0.61427780891297       -0.10708897062168
N           -0.67216076129008        1.07140651817478       -0.51080464933836
C           -1.49137607648533        1.44189498036140       -1.62512515658946
O           -1.16186243589512        2.49381096929157       -2.24682759500751
C           -2.53728153363644        0.53895473855498       -1.92772998777837
O           -3.34299330461807        0.63610237440311       -2.91644068483022
H           -5.52359975456383        1.94801403282046        0.48413540485540
H           -5.77922810222211        0.54703253711499        1.55102742858800
H           -6.81199175070601        0.76727103898367        0.11356277429177
H           -4.31431989299622       -1.47870732296475       -2.14189354448274
H           -3.77271256673128       -2.53205139792187       -0.82021162215497
H           -2.75955253922134       -2.32209804899066       -2.25688673355896
H           -0.69716535267400       -0.25351943561696        2.59805146622946
H            0.22590159234244        1.18324652427600        2.12556512546306
H            1.03976892521005       -0.16242246726953        2.93935061524028
H           -0.22410410000763       -2.46728309652436        1.44335492207495
H            1.52726079110181       -2.29726848702450        1.67120564950193
H            0.85675501769783       -2.53202789218113        0.04403721405285
H            2.47483759148835        0.24107936910221        1.04694843825639
H            7.62190229888343        1.42437009091039       -0.57822785125465
H            6.45804829891120        2.39584493822950        0.34752341397304
H            6.96545697304424        0.82181416700986        0.95650038076639
H            0.13112220991741        1.66042254496973       -0.35087414332777
