42
 energy: -82.982221056731 gnorm: 0.000477700165 xtb: 6.5.1 (579679a)
C           -5.89683268151160        1.72866207921244        0.50164033965640
O           -4.69372063508695        0.99585691919029        0.30316078997242
C           -4.61534304594511        0.29052191254904       -0.86191091056060
O           -5.53422969505420        0.30967920167016       -1.66270665324141
C           -3.35788183029164       -0.43685042081697       -0.98794888643492
N           -2.47420463380594       -0.27589433717854        0.05595869418016
C           -1.34418157287135       -0.88322290803791        0.06107688183369
C           -0.40485098270571       -0.70146754387386        1.23984134070357
C           -1.02394282969277        0.28088477850441        2.23496365315998
C           -0.10056601568724       -2.03220825051145        1.93387456204070
N            0.84918754130366       -0.06901125316734        0.76268539676088
C            1.84920889286309       -0.69224132309519        0.14176262775024
O            1.90723743792536       -1.86297313013502       -0.19990965072014
C            2.99976310090230        0.22326448284321       -0.13845508021734
O            2.99708172077690        1.51447306956773        0.17870134552746
C            4.20021208733860        1.99182634276950       -0.18945811941595
C            4.54563811795496        3.40657501320595        0.02849799994322
N            4.93402161455104        1.05804392459974       -0.71573433060217
N            4.17039024902465       -0.05296720443029       -0.67816551609881
C            4.72097770052698       -1.29568588943027       -1.17655922068728
N           -0.95637188318646       -1.71002202081515       -0.96887662437953
C           -1.72048157302217       -1.94263212547711       -2.08645225298303
O           -1.29635459154233       -2.67550506969669       -2.97375149632425
C           -3.06775930887044       -1.25277865837216       -2.11763673093802
O           -3.80887427043248       -1.43242213173059       -3.09612805990319
H           -6.04509246794013        2.45457990067245       -0.30416669713542
H           -5.79704941704324        2.24908052640602        1.45288685072547
H           -6.75876380556779        1.05437610550976        0.53637210689350
H           -0.34128104115798        0.45199161232185        3.06448076353365
H           -1.95709710321724       -0.13080508134110        2.61714452548611
H           -1.24060481276623        1.22858147094567        1.74381367441458
H            0.25693813330916       -2.77945574418281        1.22965769227614
H            0.65533720453339       -1.88246538497181        2.70220619365659
H           -1.01282320065497       -2.40063644876008        2.40167841938134
H            0.96564876054035        0.90850956668406        0.97474609724778
H            3.81281412314259        4.04574283007837       -0.46455607870731
H            4.51614239689151        3.62860378091508        1.09585657426967
H            5.53980046705575        3.60891788858607       -0.36211061746846
H            3.98723782647179       -2.08630296590317       -1.04148748499137
H            5.62942247798974       -1.51152436791298       -0.61657871146373
H            4.96316436557188       -1.16670599614739       -2.23068088768928
H           -0.05191682060914       -2.15639515022152       -0.93541551947849
