47
 energy: -79.472629344023 gnorm: 0.000660989817 xtb: 6.5.1 (579679a)
C           -4.67146926370854       -1.55729484403001        0.37856825524033
N           -3.33257430334305       -0.99370493520854        0.57406701857410
C           -2.94658581443444        0.22564888612839        0.07781431687423
C           -3.85806881127145        1.06725195534437       -0.80714473504781
C           -3.79205140361877        0.52007723018035       -2.24029837811804
C           -3.36366128841534        2.52508855090672       -0.79608461214919
N           -5.22881741156319        1.02541161791324       -0.32962939295426
N           -1.76039071146772        0.70495066267806        0.28258781424632
C           -0.81952178299446        0.02439497890232        0.99949256932390
C            0.47699241862316        0.75215730321896        1.14183224108712
O            0.62691582726627        1.90283484183049        0.75658343845197
N            1.48000139236203        0.06777471101956        1.74550686833088
C            2.76655974379022        0.70713502192047        1.97099670857269
C            3.69029144581462        0.40445317944196        0.83316685247530
C            4.92050561632139       -0.25535834595637        1.06513938844843
C            5.79191354458289       -0.49036591791715        0.04778466347607
C            5.39048008370142       -0.23660257406192       -1.35284023539636
C            4.98138550517310       -1.62437011196017       -1.94276007677050
F            6.44623942368911        0.18990012616906       -2.11187067736746
C            4.21216615558990        0.64252344574551       -1.51194542307100
C            3.36549983474028        0.85364295037245       -0.46998916674897
C           -1.13784562940624       -1.19542097186337        1.52239799675336
O           -0.29696927478266       -1.95316122426379        2.24811269315492
C           -2.46343467403420       -1.75945314836018        1.32808740290230
O           -2.76910186601592       -2.84734110331907        1.80712493483506
H           -5.37878576887476       -1.05025118105403        1.03336973886264
H           -4.98239425428307       -1.43480919133487       -0.65424192000958
H           -4.63139212754981       -2.61728220308618        0.62880492768004
H           -4.17507841143270       -0.49738823131159       -2.29091448311630
H           -4.38785957318885        1.14990881154680       -2.89919056332409
H           -2.75960218633784        0.52274295352342       -2.58712220898177
H           -2.35512437320942        2.58022476719830       -1.20348188204851
H           -3.35321245915472        2.90985157678668        0.22232667560648
H           -4.03039937802137        3.13581967982849       -1.40180644742589
H           -5.33999493325163        1.56743141254199        0.51526959068667
H           -5.86844121545261        1.36137952895059       -1.03339076201138
H            1.41093049533418       -0.91447555484139        1.95328870669711
H            2.59081622822064        1.78979365001360        2.01637728546572
H            3.17501836426441        0.35831825496398        2.92026664909570
H            5.18955933501405       -0.51720665635333        2.08196226579901
H            6.76304438475008       -0.93987714898893        0.21626609776391
H            4.14357564266808       -2.04274369708122       -1.39354688820590
H            4.70961082367836       -1.47917023098246       -2.98553096004635
H            5.84167954919055       -2.28606219865598       -1.87471368216548
H            4.01938645924707        1.04497943849354       -2.49917805663619
H            2.46396099302436        1.44142254785977       -0.60605924657339
H           -0.75375835124076       -2.78277761284465        2.49281169776167
