21
 energy: -31.513105483062 gnorm: 0.000163359966 xtb: 6.5.1 (579679a)
C            3.06337044590700       -0.54176704634372       -0.16823829002730
C            1.57379444727854       -0.36697516359581       -0.20714955213910
F            4.12173933505283        0.28140566400240        2.58952199309354
C            1.01192855506400        0.90687519715762       -0.30587557389159
C           -0.36328251411329        1.07587639942894       -0.32661009290046
C           -1.21671448190862       -0.02313567804026       -0.24919557079980
C           -2.71432216866378        0.16920506739835       -0.31103555257946
N           -3.11714747326949        1.39125693000205        0.39167317913566
C           -0.66102831591928       -1.29489278599591       -0.15003460357725
C            0.71738470559640       -1.46352330429773       -0.12865320746166
H            3.54605838640332        0.09992397480998       -0.90672447598617
H            3.44817860345087       -0.26267224442642        0.82550901399273
H            3.34033047029830       -1.57726310586632       -0.36659479656284
H            1.65730256254561        1.77772052683362       -0.37588576829239
H           -0.78928114546794        2.07186974498634       -0.40150468899474
H           -3.01470549469278        0.27411715361946       -1.36070925333193
H           -3.23047761253076       -0.71318854703084        0.09528925222560
H           -4.06325225289810        1.61453779812845        0.12230141598300
H           -3.12857233879682        1.21060505076325        1.38714144063690
H           -1.30850500413481       -2.16370553914175       -0.09501830364466
H            1.12720329078156       -2.46626909239341       -0.05820456489503
