21
 energy: -30.762252971484 gnorm: 0.000528457735 xtb: 6.5.1 (579679a)
C           -2.63976278761589       -0.72540343822241        0.05138120320253
C           -1.79537076246186        0.51077712209470        0.49739664536072
F           -2.67192509454776        1.35369247192667        1.12218036827141
C           -0.77622802217824       -0.01762337071281        1.43192247717082
C            0.48364252455622       -0.27200541095452        0.99998726931610
C            0.90241288178564        0.10849343721515       -0.30173012834763
C            2.27991012300512       -0.15581799176618       -0.76171502147807
N            3.16199497870379       -0.61289409288393        0.27844170704346
C            0.00801120572338        0.81572491678114       -1.14842443655859
C           -1.25401323230738        1.10467572563374       -0.74408212733967
H           -2.01288696370118       -1.45708294364082       -0.44957741081416
H           -3.41777096586095       -0.37559785540299       -0.62344579906993
H           -3.09205249969566       -1.16377886909079        0.93815965875013
H           -1.10452486494756       -0.27440406712817        2.43233217849516
H            1.20996649619749       -0.74402526221280        1.65198349300292
H            2.22351325510691       -0.92150058233188       -1.54725096908983
H            2.67264241769483        0.74451219674594       -1.26054732496590
H            4.03572747475504       -0.91843167217322       -0.12146495600552
H            3.33886641521830        0.11549335118620        0.95329539800085
H            0.37481130190542        1.18259591115440       -2.10013530018610
H           -1.92696388133574        1.70260042378222       -1.34667792475897
