42
 energy: -83.006100918058 gnorm: 0.000329299187 xtb: 6.5.1 (579679a)
C           -5.95815638436836        0.36748364857359        0.94201076898101
O           -4.83483379024359        0.94522125150427        0.25801592629688
C           -3.68166321349607        0.32038075539709        0.36752165484303
O           -3.49861010664582       -0.69934855762879        0.97734849271586
C           -2.55561689247450        1.03784724558702       -0.43170870958229
C           -2.86607989834099        2.51758591050367       -0.65258314843891
N           -1.35916554135519        0.90175331355016        0.36663029216861
C           -0.61386650051968       -0.11814467908557        0.24620945463022
C            0.55812634131060       -0.29162760192692        1.20209656912425
C            0.69158741727074        0.96154542496417        2.06867630856709
C            0.32228219122858       -1.52011516385600        2.09029748863090
N            1.81558751541897       -0.41995612452020        0.45298780837894
C            2.23475047491575       -1.50206344029946       -0.22879988574032
O            1.58078824344731       -2.51628294656464       -0.43444650946005
C            3.60961279301091       -1.34446135969849       -0.75843849428032
N            4.26692271637296       -2.16317543493219       -1.51943060307331
N            5.48240987369565       -1.59523741064522       -1.75115440664218
C            5.49480206262853       -0.46442369704015       -1.11610511785890
C            6.59189871531337        0.52390618855486       -1.04001648405255
O            4.33840848149790       -0.24423192188318       -0.46942154067312
N           -0.81868425585961       -1.11792067337011       -0.68889593997090
C           -1.68382080089405       -1.02045313763311       -1.73167121671044
O           -1.78083107085241       -1.86879442130845       -2.59122912232790
C           -2.51356144821515        0.26981309847675       -1.74165907414010
O           -3.12293046468068        0.61776805098751       -2.71925216508968
H           -5.75465397869780        0.32528536374638        2.01333984853314
H           -6.14408501731847       -0.63958419186324        0.56372231094700
H           -6.80675703947540        1.01656419815072        0.74003954977911
H           -2.01317325448214        2.99266599433129       -1.13334896588828
H           -3.05055814933461        3.00116508042455        0.30355047643857
H           -3.74212424513426        2.62353834189427       -1.28953897930588
H            0.85297296354410        1.83790616450002        1.44320694782136
H           -0.22119992834689        1.10920657430801        2.64301609301473
H            1.52941937652809        0.84985214328251        2.75361129505227
H            0.20972270082510       -2.42508768750745        1.49736909407312
H           -0.58402265185965       -1.36618266066963        2.67428731506534
H            1.16558132040578       -1.64332990280920        2.76717138460533
H            2.46402121506567        0.34413264801489        0.55433566436273
H            6.21848783482993        1.51457690363935       -1.29672802119628
H            6.98104092640382        0.56565126637141       -0.02232843963687
H            7.39063475519208        0.24113451137338       -1.72170719423765
H           -0.19466028631079       -1.92456206489942       -0.67046372572210
