42
 energy: -83.020595959520 gnorm: 0.000937975713 xtb: 6.5.1 (579679a)
C           -4.99523986060500        2.51505359112879        1.24297625632165
O           -3.83168367497800        1.70956624581777        1.04053523044214
C           -3.93737565806450        0.73549392512741        0.13170211803164
O           -4.95360292903042        0.52659570451276       -0.48930305769228
C           -2.66507640519281       -0.03411098456748       -0.00439005305925
N           -1.64745653053651        0.37691118987037        0.81592069841299
C           -0.50988987454850       -0.22465280979905        0.76766440593108
C            0.60834499921909        0.18856398157849        1.69909285052613
C            0.68327971039462       -0.84336210381220        2.83553094101436
C            0.34387686682387        1.59611618033382        2.24157828793419
N            1.85609423815774        0.17409258234279        0.92664687793288
C            3.06379153940974        0.44261552731360        1.47228365320374
O            3.27711492357866        0.65085496116970        2.65406563458400
C            4.15102726021958        0.44304564710054        0.46225034786510
N            5.41215535508139        0.67799408540511        0.65127949637246
N            6.02008341119553        0.56511055716115       -0.56250064586884
C            5.09287956430736        0.26815662630824       -1.41920910604192
C            5.24008412876598        0.03254049346767       -2.87178540571792
O            3.88628814584142        0.17742605508881       -0.83600039580645
N           -0.29313390208134       -1.28168403290009       -0.06574164428690
C           -1.22985089181977       -1.78865511484062       -0.94373198090463
O           -0.94393724616612       -2.73985175907542       -1.65570971655304
C           -2.51216529095606       -1.07967974365626       -0.89031836015222
O           -3.54020006097760       -1.42466113454291       -1.67339862566396
C           -3.46265279043566       -2.46809211779811       -2.64472163671404
H           -5.83927217708949        1.89031329010009        1.54511572070099
H           -5.25030233436410        3.04496191743657        0.32187339678700
H           -4.75014503312491        3.22573665736780        2.02953616339775
H           -0.28362013844631       -0.90147421995796        3.33307331599965
H            1.43945876064844       -0.55118011277810        3.56149730068687
H            0.93493506576005       -1.82189454752216        2.43102945328656
H           -0.61209204786139        1.60736145277445        2.76261829936521
H            0.30503037295672        2.30849907985296        1.41886956075757
H            1.13369136147536        1.88444453415936        2.93249924428329
H            1.79225990272192        0.13220980707526       -0.07670815785169
H            5.00644050862963       -1.00733116473787       -3.10400413506257
H            6.26062258372550        0.25223529763152       -3.17821213917217
H            4.54346981220543        0.66418564914518       -3.42243747293559
H            0.60296398277806       -1.74504834983588       -0.07321819305330
H           -2.68468584928926       -2.26115630002568       -3.38261640733047
H           -3.27383351494564       -3.43393439380498       -2.17083675056997
H           -4.43767728336735       -2.48331414961611       -3.13376236940022
