47
 energy: -79.493208685392 gnorm: 0.000479152630 xtb: 6.5.1 (579679a)
C           -4.57600132817823       -0.80764241777741        0.07613418024065
N           -3.11331306147311       -0.69663958840150        0.04996569031124
C           -2.42354467424964        0.26502005914347        0.65825864956464
C           -3.00033887021525        1.54263939723764        1.18471479887117
C           -3.28742975719505        1.33895379515661        2.68549896317621
C           -1.95161642909023        2.65919762074948        1.00525422626684
N           -4.22753535803235        1.87143711907734        0.49160321825152
N           -1.12078422566625        0.05593333760474        0.94418622717483
C           -0.38602648345260       -0.79661998720845        0.31602557774110
C            0.99024579984232       -1.04982554660927        0.90002183929421
O            1.21826248255726       -0.77216985320103        2.06305858897266
N            1.88479073927189       -1.55538990785067        0.04142740357346
C            3.26712834543542       -1.78356304730387        0.43657666694410
C            4.20577349377418       -0.77474005474033       -0.18989709728233
C            3.76718001555913        0.49873741298824       -0.54221436847073
C            4.64726189619663        1.42238126384933       -1.08826316843765
C            5.96571242491986        1.04609899529513       -1.26925085968533
F            6.82312703375929        1.93340358421847       -1.79338631372288
C            6.43385077982430       -0.21184565223461       -0.93216498568350
C            5.54014844364322       -1.12383388855522       -0.38999236750232
C           -0.94443236988576       -1.42145812670160       -0.92124500531921
O           -0.27656905089148       -2.59829038019618       -1.24178594784912
C           -2.43308306564815       -1.68856457666062       -0.71034417425404
C           -0.86917766866826       -0.40113216497543       -2.09191881363205
O           -3.02078392898247       -2.58629214525398       -1.23639031818481
H           -4.98683830566247       -0.24754476957394       -0.76156982197119
H           -4.83101481198857       -1.86192278909647       -0.01962072116359
H           -4.95321732615769       -0.40437186575583        1.00909464666849
H           -3.63550200858722        2.28239137037056        3.10151766462128
H           -2.37980334213353        1.03002003677049        3.20153789760067
H           -4.05767973003882        0.58267931744338        2.82416859912211
H           -1.04438055433605        2.42584703619117        1.56016755871713
H           -1.70752510360238        2.77117875468543       -0.04919663689610
H           -2.37061050639447        3.59290438757769        1.37405546050055
H           -4.02185785570767        2.17453473250464       -0.44997934439671
H           -4.69893326215516        2.62666914879626        0.96991029025979
H            1.62464582149005       -1.78118977359922       -0.90420029562685
H            3.54569377814515       -2.79693324826474        0.13473219942409
H            3.31695236594126       -1.71635188766387        1.52930776827987
H            2.72827261441115        0.77114808994097       -0.40220404669316
H            4.31493374145211        2.41298694349054       -1.36930774390276
H            7.47207862895959       -0.47197121042391       -1.09382202963831
H            5.88441365276075       -2.11575071517854       -0.12153542475699
H           -0.77974902335068       -3.12237846163260       -1.88273205783555
H           -1.34424101118376        0.53513450093111       -1.81061140423528
H            0.17921317228130       -0.22899141725836       -2.32425467021896
H           -1.36769711729093       -0.82388042790759       -2.96132949821269
