33
 energy: -57.858624394001 gnorm: 0.000818096421 xtb: 6.5.1 (579679a)
C            4.93690400863321        0.75043497280578       -0.13882888703199
O            3.72859481038189       -0.03016546945398       -0.25484327653059
C            2.61039858526402        0.56462494522965        0.13527265242969
O            2.56975663827145        1.67345691056447        0.60298126391969
C            1.41151290733089       -0.32961120313433       -0.01801166054712
C            1.49936328336634       -1.69268778060367        0.06249730055558
O            2.61400188655270       -2.39917869901128        0.13046746492131
C            0.27749299101542       -2.51071633103340        0.12600332002139
O            0.21721986747734       -3.71330872616684        0.15271337268899
N           -0.87802741309452       -1.73402677998808        0.19304516272776
C           -0.96683607049274       -0.40163750197404        0.07048517904898
C           -2.36728195378560        0.19519647787703        0.11654350146444
C           -2.90833328239205        0.26235693583528       -1.32129355084318
C           -3.30679723133410       -0.66937873919347        0.97664904601427
N           -2.30171798125298        1.53006742868134        0.68868567071813
N            0.15106400148509        0.28382988867024       -0.10346616411103
C            0.12276837916276        1.70811933915515       -0.47966190097385
H            5.74098694913869        0.12430621202165       -0.51595717762433
H            4.83826486204515        1.65706485080291       -0.73767044876249
H            5.10381942930033        1.01274471830523        0.90687596213509
H            3.42561401087336       -1.86327407597817        0.05613673147250
H           -1.72778780203706       -2.27345324975942        0.29850568784617
H           -3.91892115500184        0.66577529953867       -1.29833777207185
H           -2.93475426765553       -0.73596775492955       -1.75439126354958
H           -2.28972620874788        0.90210327886270       -1.94729985265463
H           -2.85442474453201       -0.88230731370999        1.94321520368733
H           -3.56832092565196       -1.60223510067989        0.47955886808059
H           -4.22471200069638       -0.10722064877758        1.13958127148570
H           -2.16693178786038        1.46275736551355        1.68871665049423
H           -3.18083324108435        2.00133583476319        0.52390744401627
H            0.95826105616868        1.90815966376165       -1.14470421524088
H           -0.80548532477926        1.92298153469623       -0.99441613503117
H            0.19486772393124        2.31985171730973        0.41703955124443
