42
 energy: -83.599859453923 gnorm: 0.000477037915 xtb: 6.5.1 (579679a)
C           -6.47660143999933       -0.41658110130145       -0.40633278026795
O           -5.13526751739515       -0.39418082698284       -0.87969800754642
C           -4.17355703624753       -0.23439321368358        0.08081964753609
O           -4.50657707478578       -0.11967312687585        1.25024164485823
C           -2.78616467461971       -0.22382465736915       -0.41563204943967
C           -2.41094555327993       -0.16348185687966       -1.75077382294168
O           -3.28514364476962       -0.17494195801291       -2.82683040336469
C           -0.98505354247913        0.08725037891646       -2.10087948735420
O           -0.66815480950889        0.36835702880191       -3.29165662770933
N           -0.09237631862363        0.04091541610697       -1.11963325095640
C           -0.49626523199903       -0.35548565429823        0.20988452680226
C           -0.06776589554387       -1.84175289456138        0.41405981293401
C            0.32599945284292        0.56101676194613        1.20393173398613
C            0.13747470102617        0.12268659457782        2.65703701685278
C           -0.16286357960686        2.00601888834335        1.02428453064464
N            1.71578133328802        0.48064446573809        0.76721476461079
C            2.81952633955847        0.68886721946335        1.50505197157128
O            2.83608665029129        0.97814483511060        2.71258948348059
C            4.07137330927569        0.52773384962745        0.75218359308501
N            5.29300290678370        0.73084822649810        1.19382513819449
N            6.13544855055031        0.49019724496300        0.14268952264097
C            5.39533618490277        0.16091896869117       -0.86681465108631
C            5.84715565976868       -0.19800782261047       -2.23183787126807
O            4.08171131718389        0.16322530194497       -0.56348284933598
N           -1.88525168238431       -0.23480381057944        0.58962251745734
H           -6.63162540241373       -1.26436029677623        0.26825295102739
H           -6.71350015405610        0.50862524525576        0.12825595457343
H           -7.12394920259954       -0.51587397154057       -1.27565911040131
H           -4.19849257781248       -0.29864105396274       -2.53821531666315
H           -0.43446610408827       -2.21917639243127        1.36767364835872
H           -0.49659150354179       -2.44461873073735       -0.38579995758340
H            1.01776816013417       -1.93388276724059        0.37693545511400
H            0.44258924055170        0.90524401438110        3.35161707337120
H           -0.92221516437345       -0.08773684604965        2.81485551797691
H            0.71299979927747       -0.77521495845972        2.87838539810676
H            0.40098449295502        2.68965134248135        1.65901458237581
H           -1.21952116124784        2.05967735488453        1.28989977934607
H           -0.04356744140110        2.30913569656423       -0.01680147732902
H            1.80635207996585        0.35521980033320       -0.24145886863242
H            6.93214442141373       -0.15275941074921       -2.27634752301934
H            5.51721859569077       -1.20522002825092       -2.48639350068287
H            5.42696451731254        0.49162174472480       -2.96407770932586
