42
 energy: -83.673643906302 gnorm: 0.000367101681 xtb: 6.5.1 (579679a)
C            6.75620071616558       -1.62814026320020        0.88427426294074
O            5.58403969533156       -0.92174610008704        1.25327075842986
C            4.58078624606837       -0.91838923085753        0.32889404842711
O            4.72884944877978       -1.50869026608860       -0.73843589978765
C            3.39134205211379       -0.18714241673378        0.72138914046802
N            2.40565990104593       -0.20140909757175       -0.25641173164000
C            1.28692498684604        0.39388045216202       -0.05566147143252
C            0.20434370136839        0.44999235466078       -1.12470117586067
C            0.57331866446150        1.61524915693093       -2.06864616071575
C            0.20820070414016       -0.87928828322189       -1.89914649750143
N           -1.06701419335447        0.68289866876315       -0.44428550314599
C           -2.14246597495098        0.79253442888070       -1.17515394753421
O           -2.29302730442418        0.76284229920864       -2.41952275207527
C           -3.43905061649929        1.01733160829860       -0.31177750110870
C           -4.20696614864506        2.23908170924914       -0.81717241133016
N           -3.14915497102178        1.14861047853107        1.12643247877657
N           -3.74941754769235        0.02369110036347        1.76437126372041
C           -4.38191573955159       -0.61817190098725        0.86811387244841
C           -5.20626871924157       -1.83557724412932        1.09810746070994
O           -4.29673285609048       -0.13895563988927       -0.39095643037861
N            1.03001291024945        1.07032781127918        1.11456782734699
C            1.89884049324212        1.16712068762728        2.15836817883821
O            1.58112401750090        1.78600726744640        3.17851213577316
C            3.23042172398915        0.47769272190084        1.96447674462815
O            4.07105670694351        0.53331805503038        2.88834260058173
H            7.21257441833131       -1.18810402084213       -0.00868780626117
H            6.53110174144462       -2.68006911830318        0.67940721676955
H            7.45049311314327       -1.55875044708462        1.72107546960482
H            1.58057212701782        1.46714582366670       -2.45996867302359
H            0.54270685051082        2.55854945203705       -1.52298344242118
H           -0.12493766787127        1.66645809968625       -2.90275892835876
H            1.21450128382853       -1.08888892249856       -2.26468707455818
H           -0.10254018164511       -1.69285327463463       -1.24266477975783
H           -0.47329776426947       -0.82874165136017       -2.74700533845039
H           -2.13065490037129        1.04621407487280        1.26490624943163
H           -4.37529921688514        2.14177701515723       -1.88907129499264
H           -3.62243146798242        3.13672712699783       -0.62442895843888
H           -5.16432482649940        2.31967943891694       -0.30527366644315
H           -4.85633335726347       -2.65226661779891        0.46728222720344
H           -6.24562589606712       -1.63409007943279        0.84016935115769
H           -5.14647074446506       -2.13024670961641        2.14297429179062
H            0.11085859227693        1.49012945265617        1.20446886617447
