42
 energy: -82.980724164609 gnorm: 0.000715889131 xtb: 6.5.1 (579679a)
C           -4.78517765510065        3.44544345557518        0.53914902431986
O           -3.77560029640467        2.49673855681696        0.19503946009176
C           -4.14103701472830        1.20024377080902        0.23910330057537
O           -5.25895979395702        0.84543196675566        0.55838873125005
C           -3.05111918079473        0.30967208359075       -0.12217629730098
C           -3.12834521279341       -1.07041619946664       -0.20298432717114
O           -3.90072166208593       -1.96888467476853       -0.03711118986552
C           -1.16721392560176       -2.34481318092174        0.48878743283126
C           -0.86910872882889       -1.61724789640475        1.75413677103224
O           -1.30253301568593       -3.51619200612461        0.34154885652810
N           -1.60772655113304       -1.46439263401287       -0.63830397381838
C           -1.00364699173866       -0.13859850683728       -0.82753579816461
C            0.31051947491428        0.09305266538926       -1.53303806153645
C            0.48460449970909       -0.87867538139051       -2.70704404039565
C            0.32309463739390        1.54096840509870       -2.03120424669550
N            1.45390727148186       -0.04219404755580       -0.61647034096733
C            1.78853828575664       -1.20263208648503       -0.03161096079828
O            1.09677497072115       -2.21483702844241       -0.05638749276507
C            3.07468041093313       -1.15108314980106        0.69571001971133
N            3.63778514446209       -2.09693742701773        1.38148701819923
N            4.80416619122240       -1.58956752157603        1.86540141732588
C            4.88322464564529       -0.36442064712059        1.44581723409593
C            5.96089445296890        0.61439482847190        1.70252123652889
O            3.81922539536946       -0.02421117258057        0.69972774109393
N           -1.81477758252665        0.79698114872155       -0.52879361071004
H           -5.13848289324878        3.27256617440644        1.55955834649681
H           -4.32606181580857        4.42944863914031        0.46359380295717
H           -5.62957343555284        3.37041354730744       -0.15173805936978
H           -0.13719435011142       -2.18230907259353        2.32581730192858
H           -0.51240522386395       -0.60878033838573        1.57059872661451
H           -1.79690467113701       -1.57211172875599        2.32633459486017
H           -1.63901104602990       -2.03112054510575       -1.48234218385431
H           -0.33004761757509       -0.74210336257035       -3.41573551101431
H            1.42778230021605       -0.67070387751517       -3.20868634488822
H            0.49040672149889       -1.91088429856553       -2.36165120735327
H            1.26261960503664        1.74756423915759       -2.53928855255866
H           -0.49935234989797        1.69827066633088       -2.72696730089250
H            0.20913795575678        2.22668304801516       -1.19299415323282
H            2.10809240039329        0.72236000346675       -0.58485818459347
H            5.55324751736243        1.49102517915421        2.20572111827565
H            6.72932216617438        0.15983486828704        2.32330073954010
H            6.39697696759423        0.94202353750301        0.75910896368643
