42
 energy: -83.589364537502 gnorm: 0.000770704050 xtb: 6.5.1 (579679a)
C           -5.44318167420904        2.20033337737728       -2.96877204249165
O           -4.54782706066250        1.90076916192438       -1.92208564928851
C           -3.54105305712151        0.96994403040918       -2.25469866073034
O           -3.52505662194108        0.50149666087268       -3.41970742541872
C           -2.64609917402718        0.66919838378111       -1.21079511692900
C           -2.64725165821141        1.19388334655767        0.13008755052040
O           -3.61268988804974        2.09566361851935        0.54809829623569
C           -1.67228882596708        0.78259986726997        0.99711542585718
O           -1.68902718410560        1.29027541845818        2.28862498451689
C           -0.67789167349072        0.80645047848067        3.15102114225436
N           -0.68816150008552       -0.09628628975747        0.67098011288405
C           -0.75158553053858       -0.55463173012059       -0.60034933276603
C            0.34441550972004       -1.56116548090082       -0.95428882479166
C            0.33837551003583       -1.85626186568207       -2.45776103280968
C            0.08703177024055       -2.84453691399824       -0.14089647086568
N            1.61190377601196       -0.94277362829443       -0.55604636002569
C            2.81344862488912       -1.65047134041076       -0.58593079894945
O            2.97239547332500       -2.69603704446730       -1.26639685757829
C            3.86858325414754       -1.04018945377567        0.15488965113451
N            5.13900235752876       -1.46012563998797        0.26952308159278
N            5.77232959383395       -0.56046985872358        1.08093295424918
C            4.90817087352091        0.33816526726918        1.42243036781616
C            5.14398297636679        1.51401478690136        2.29806993805459
O            3.67648979816295        0.12450089520358        0.88956649550752
N           -1.62586990294503       -0.24720265766181       -1.51254575590101
H           -6.16387095747988        2.92543585571534       -2.58533080284594
H           -4.92394936315234        2.63541082816836       -3.83365159383966
H           -5.98257810743183        1.30546713307325       -3.30788497287439
H           -3.44271322201538        2.31960423822573        1.47128045396262
H            0.32124427851652        1.04144348478944        2.76214009719040
H           -0.75377864274709       -0.28113071334710        3.28098935031124
H           -0.81844534843254        1.29766202676958        4.11494190409986
H            1.06436267955582       -2.62878304396537       -2.70731220994907
H            0.57837424955710       -0.94908671573985       -3.01410638294892
H           -0.65436215378872       -2.19416069583615       -2.75723018158999
H            0.08910394132066       -2.60504499168989        0.92288177827988
H            0.85240550916115       -3.59418733555141       -0.33998737827966
H           -0.88700513083013       -3.25777158407551       -0.40433377617882
H            1.50330137058899       -0.32522568767074        0.24306040554835
H            4.55851277376481        1.43405481425362        3.21494972985576
H            6.19937822399774        1.56502232185844        2.55581992235464
H            4.85187613299226        2.43414667579339        1.79096598483096
