42
 energy: -82.978700486124 gnorm: 0.000556665057 xtb: 6.5.1 (579679a)
C           -2.70496257161887       -3.65732009741261        2.02287123371111
O           -2.27242542364602       -2.51081496198634        1.28907286091545
C           -3.24530712444439       -1.79461493629760        0.69368107097873
O           -4.42032183179010       -2.09146825849303        0.77512011818341
C           -2.72186101599490       -0.64997243175370       -0.03545280762355
C           -3.47978253287646        0.24531235451526       -0.76609810529818
O           -4.61013249861991        0.49459778647516       -1.06183954309509
C           -2.64199569986737        2.63659786559865       -0.92211190386731
C           -2.75824513579736        2.81269364278361        0.54713185346371
O           -2.82972276750703        3.45255333531120       -1.76752540877659
N           -2.32478076458449        1.25995249326325       -1.35059536271106
C           -1.10500470525665        0.64824230773837       -0.79575170076536
C            0.26300717334402        1.15923181526478       -1.15690229045451
C            0.48065227672332        1.03729139430551       -2.67375243338295
C            0.47539112716165        2.60710722506351       -0.69456480170543
N            1.18732684857991        0.27688881454294       -0.44929245965205
C            2.52918398306990        0.37896623498209       -0.52068235625790
O            3.14556302019172        1.20484360651334       -1.17092081631493
C            3.17905064544679       -0.66506458469727        0.31284255827925
N            2.57016350427453       -1.57209490538458        1.01555324108487
N            3.53818743726400       -2.31790123166147        1.61795571367311
C            4.67680577431055       -1.81736293180707        1.24408107575115
C            6.03203714951631       -2.27061205563733        1.62701110453071
O            4.51596368506298       -0.77196039630661        0.41936627336105
N           -1.35721849018628       -0.37903801560538       -0.09454345504816
H           -3.20249648138343       -4.36800308299908        1.35734383013262
H           -1.81283895143870       -4.10890445501949        2.45304214924774
H           -3.39747229279205       -3.36236320794911        2.81574413292438
H           -3.79056369263203        2.58653109405886        0.82325886531971
H           -2.55365466017303        3.84931827484365        0.80462982884444
H           -2.09802003182966        2.14133409550144        1.08955640419199
H           -2.35638402000600        1.23485979295780       -2.36838641910553
H           -0.24489871807491        1.65604135619819       -3.19807334545260
H            0.36258334473020        0.00128008324577       -2.98555113799923
H            1.48314976046780        1.37676204489235       -2.92836023041454
H            0.32975379566450        2.68248226846438        0.38137889774089
H           -0.22654814533301        3.26473634766815       -1.20198782392423
H            1.48831811605107        2.92216407376062       -0.93971895316352
H            0.77718056965433       -0.45547963220403        0.11909201340428
H            5.95699686221279       -3.13917095584705        2.27664256402501
H            6.55846719734047       -1.47037696079427        2.14714393627897
H            6.60485428478876       -2.52726320610105        0.73613862896852
