39
 energy: -79.833681140362 gnorm: 0.000682644697 xtb: 6.5.1 (579679a)
C           -5.56416253061712       -1.82083763215528        0.78076927208944
O           -4.29967662162510       -1.18423357534239        0.56572272941073
C           -4.16009355144218       -0.51405214357600       -0.56884141863424
O           -5.04186882520183       -0.43179485941112       -1.40644909578195
C           -2.83794534140358        0.13431704030285       -0.72784729067715
N           -1.92912797240536       -0.03716273329651        0.28612974763996
C           -0.76923726048907        0.51530522879006        0.18488332003480
C            0.21557803442270        0.40450848769210        1.32823630859986
C            0.13685464181141        1.71426629815132        2.12961821027577
C           -0.12775420977530       -0.80428386569039        2.20408231265835
N            1.55757419539029        0.24235396993282        0.75775110619560
C            2.67114474748736        0.17482965002203        1.52285900716184
O            2.71319133470175        0.34576883275854        2.72883382243216
C            3.89158702455172       -0.11295357143373        0.72954625319359
N            5.10872555809325       -0.21784036736100        1.16430932137420
N            5.89243294744229       -0.47964654839700        0.08150200064671
C            5.10614228329701       -0.51812714622204       -0.94886356702646
C            5.47300377258620       -0.76559606629632       -2.35988327570869
O            3.82581418289153       -0.29542080667183       -0.60757860081144
N           -0.41876061719843        1.28006890691836       -0.89013339223452
C           -1.24214069388842        1.53028305866422       -1.97378500200096
O           -0.86567481728801        2.22286461915029       -2.90125591870495
C           -2.55388006104285        0.88352833671496       -1.84408324024611
O           -3.40506623482285        1.08167997915119       -2.84995951243028
H           -6.36185490107328       -1.07463312579337        0.77867306693228
H           -5.50435920647620       -2.31102818746378        1.75024074026008
H           -5.75188502231372       -2.55389894339315       -0.00683627607582
H            0.46375821787846        2.54768329211446        1.51078625452137
H           -0.89350188954603        1.88298533086225        2.43879330380209
H            0.76758645262500        1.65630292193768        3.01419017109573
H           -0.04376057546734       -1.71971503955936        1.62080238529477
H           -1.15043774552885       -0.70908123049961        2.56530787416195
H            0.55079982665922       -0.85404004320762        3.05360653031591
H            1.63069517637257       -0.04810039336838       -0.20315685467025
H            6.54720241498023       -0.91834671291620       -2.43731944405903
H            5.17798002983800        0.08570024924446       -2.97367455501590
H            4.94945455414819       -1.64649689352351       -2.73199014071720
H            0.49830084346570        1.69881180653461       -0.92815386875549
H           -4.25663616104377        0.61603187663802       -2.67999728454979
